MODEL 1
REMARK VINA RESULT:    -6.028      0.000      0.000
REMARK INTER + INTRA:         -11.751
REMARK INTER:                  -9.728
REMARK INTRA:                  -2.023
REMARK UNBOUND:                -2.023
REMARK SMILES O=P(O)(O)OC[C@H]1O[C@H](O[P@@](=O)(O)OP(=O)(O)O)[C@H](O)[C@@H]1O
REMARK SMILES IDX 8 1 21 2 7 3 19 4 9 5 10 6 11 7 12 8 14 9 15 10 16 11 17 12
REMARK SMILES IDX 18 14 13 16 20 18 6 20 5 21 2 22 1 23 3 24 4 26 22 28
REMARK H PARENT 17 13 18 15 13 17 20 19 3 25 4 27 22 29
REMARK Flexibility Score: inf
ROOT
ATOM      1  O   UNL     1      -4.958  62.730  37.184  1.00  0.00    -0.341 OA
ATOM      2  C   UNL     1      -5.563  62.482  39.459  1.00  0.00     0.179 C 
ATOM      3  C   UNL     1      -4.453  62.933  38.518  1.00  0.00     0.179 C 
ATOM      4  C   UNL     1      -6.797  62.855  38.666  1.00  0.00     0.202 C 
ATOM      5  C   UNL     1      -6.364  62.428  37.271  1.00  0.00     0.293 C 
ENDROOT
BRANCH   5   6
ATOM      6  O   UNL     1      -7.128  63.086  36.276  1.00  0.00    -0.253 OA
BRANCH   6   7
ATOM      7  P   UNL     1      -7.091  62.560  34.746  1.00  0.00     0.483 P 
ATOM      8  O   UNL     1      -8.186  61.599  34.383  1.00  0.00    -0.228 OA
BRANCH   7   9
ATOM      9  O   UNL     1      -5.599  61.966  34.557  1.00  0.00    -0.185 OA
BRANCH   9  10
ATOM     10  P   UNL     1      -4.344  62.506  33.695  1.00  0.00     0.478 P 
ATOM     11  O   UNL     1      -4.700  63.481  32.613  1.00  0.00    -0.228 OA
BRANCH  10  12
ATOM     12  O   UNL     1      -3.633  61.144  33.191  1.00  0.00    -0.302 OA
ATOM     13  H   UNL     1      -3.825  60.306  33.663  1.00  0.00     0.223 HD
ENDBRANCH  10  12
BRANCH  10  14
ATOM     14  O   UNL     1      -3.330  63.065  34.823  1.00  0.00    -0.302 OA
ATOM     15  H   UNL     1      -3.624  63.085  35.759  1.00  0.00     0.223 HD
ENDBRANCH  10  14
ENDBRANCH   9  10
ENDBRANCH   7   9
BRANCH   7  16
ATOM     16  O   UNL     1      -7.067  63.911  33.856  1.00  0.00    -0.302 OA
ATOM     17  H   UNL     1      -7.810  64.546  33.939  1.00  0.00     0.223 HD
ENDBRANCH   7  16
ENDBRANCH   6   7
ENDBRANCH   5   6
BRANCH   4  18
ATOM     18  O   UNL     1      -6.989  64.267  38.715  1.00  0.00    -0.385 OA
ATOM     19  H   UNL     1      -6.228  64.674  39.162  1.00  0.00     0.211 HD
ENDBRANCH   4  18
BRANCH   3  20
ATOM     20  C   UNL     1      -3.161  62.155  38.699  1.00  0.00     0.208 C 
BRANCH  20  21
ATOM     21  O   UNL     1      -2.524  62.025  37.439  1.00  0.00    -0.284 OA
BRANCH  21  22
ATOM     22  P   UNL     1      -2.341  60.542  36.817  1.00  0.00     0.469 P 
ATOM     23  O   UNL     1      -1.754  59.529  37.756  1.00  0.00    -0.228 OA
BRANCH  22  24
ATOM     24  O   UNL     1      -1.501  60.796  35.460  1.00  0.00    -0.303 OA
ATOM     25  H   UNL     1      -1.087  60.030  35.006  1.00  0.00     0.223 HD
ENDBRANCH  22  24
BRANCH  22  26
ATOM     26  O   UNL     1      -3.825  60.192  36.277  1.00  0.00    -0.303 OA
ATOM     27  H   UNL     1      -3.919  59.685  35.443  1.00  0.00     0.223 HD
ENDBRANCH  22  26
ENDBRANCH  21  22
ENDBRANCH  20  21
ENDBRANCH   3  20
BRANCH   2  28
ATOM     28  O   UNL     1      -5.486  63.124  40.713  1.00  0.00    -0.387 OA
ATOM     29  H   UNL     1      -5.838  64.024  40.607  1.00  0.00     0.211 HD
ENDBRANCH   2  28
TORSDOF 14
ENDMDL
MODEL 2
REMARK VINA RESULT:    -5.886      2.637      6.171
REMARK INTER + INTRA:         -11.521
REMARK INTER:                 -10.076
REMARK INTRA:                  -1.446
REMARK UNBOUND:                -2.023
REMARK SMILES O=P(O)(O)OC[C@H]1O[C@H](O[P@@](=O)(O)OP(=O)(O)O)[C@H](O)[C@@H]1O
REMARK SMILES IDX 8 1 21 2 7 3 19 4 9 5 10 6 11 7 12 8 14 9 15 10 16 11 17 12
REMARK SMILES IDX 18 14 13 16 20 18 6 20 5 21 2 22 1 23 3 24 4 26 22 28
REMARK H PARENT 17 13 18 15 13 17 20 19 3 25 4 27 22 29
REMARK Flexibility Score: inf
ROOT
ATOM      1  O   UNL     1      -4.555  62.653  37.411  1.00  0.00    -0.341 OA
ATOM      2  C   UNL     1      -2.946  61.166  36.514  1.00  0.00     0.179 C 
ATOM      3  C   UNL     1      -3.893  62.311  36.178  1.00  0.00     0.179 C 
ATOM      4  C   UNL     1      -2.549  61.512  37.932  1.00  0.00     0.202 C 
ATOM      5  C   UNL     1      -3.892  61.964  38.489  1.00  0.00     0.293 C 
ENDROOT
BRANCH   5   6
ATOM      6  O   UNL     1      -3.721  62.778  39.636  1.00  0.00    -0.253 OA
BRANCH   6   7
ATOM      7  P   UNL     1      -4.800  62.714  40.842  1.00  0.00     0.483 P 
ATOM      8  O   UNL     1      -4.486  63.599  42.014  1.00  0.00    -0.228 OA
BRANCH   7   9
ATOM      9  O   UNL     1      -4.908  61.143  41.207  1.00  0.00    -0.185 OA
BRANCH   9  10
ATOM     10  P   UNL     1      -3.921  60.180  42.048  1.00  0.00     0.478 P 
ATOM     11  O   UNL     1      -4.245  60.071  43.509  1.00  0.00    -0.228 OA
BRANCH  10  12
ATOM     12  O   UNL     1      -2.455  60.771  41.709  1.00  0.00    -0.302 OA
ATOM     13  H   UNL     1      -1.891  61.092  42.445  1.00  0.00     0.223 HD
ENDBRANCH  10  12
BRANCH  10  14
ATOM     14  O   UNL     1      -3.966  58.789  41.225  1.00  0.00    -0.302 OA
ATOM     15  H   UNL     1      -4.751  58.590  40.673  1.00  0.00     0.223 HD
ENDBRANCH  10  14
ENDBRANCH   9  10
ENDBRANCH   7   9
BRANCH   7  16
ATOM     16  O   UNL     1      -6.218  63.028  40.130  1.00  0.00    -0.302 OA
ATOM     17  H   UNL     1      -6.571  62.390  39.474  1.00  0.00     0.223 HD
ENDBRANCH   7  16
ENDBRANCH   6   7
ENDBRANCH   5   6
BRANCH   4  18
ATOM     18  O   UNL     1      -1.627  62.600  37.920  1.00  0.00    -0.385 OA
ATOM     19  H   UNL     1      -2.124  63.435  37.934  1.00  0.00     0.211 HD
ENDBRANCH   4  18
BRANCH   3  20
ATOM     20  C   UNL     1      -4.927  61.946  35.127  1.00  0.00     0.208 C 
BRANCH  20  21
ATOM     21  O   UNL     1      -4.257  61.458  33.976  1.00  0.00    -0.284 OA
BRANCH  21  22
ATOM     22  P   UNL     1      -3.772  62.522  32.857  1.00  0.00     0.469 P 
ATOM     23  O   UNL     1      -4.646  63.732  32.712  1.00  0.00    -0.228 OA
BRANCH  22  24
ATOM     24  O   UNL     1      -3.603  61.626  31.523  1.00  0.00    -0.303 OA
ATOM     25  H   UNL     1      -2.717  61.266  31.300  1.00  0.00     0.223 HD
ENDBRANCH  22  24
BRANCH  22  26
ATOM     26  O   UNL     1      -2.245  62.832  33.293  1.00  0.00    -0.303 OA
ATOM     27  H   UNL     1      -2.000  63.747  33.547  1.00  0.00     0.223 HD
ENDBRANCH  22  26
ENDBRANCH  21  22
ENDBRANCH  20  21
ENDBRANCH   3  20
BRANCH   2  28
ATOM     28  O   UNL     1      -1.853  61.106  35.624  1.00  0.00    -0.387 OA
ATOM     29  H   UNL     1      -1.053  61.346  36.121  1.00  0.00     0.211 HD
ENDBRANCH   2  28
TORSDOF 14
ENDMDL
MODEL 3
REMARK VINA RESULT:    -5.881      2.611      6.323
REMARK INTER + INTRA:         -11.513
REMARK INTER:                  -9.880
REMARK INTRA:                  -1.632
REMARK UNBOUND:                -2.023
REMARK SMILES O=P(O)(O)OC[C@H]1O[C@H](O[P@@](=O)(O)OP(=O)(O)O)[C@H](O)[C@@H]1O
REMARK SMILES IDX 8 1 21 2 7 3 19 4 9 5 10 6 11 7 12 8 14 9 15 10 16 11 17 12
REMARK SMILES IDX 18 14 13 16 20 18 6 20 5 21 2 22 1 23 3 24 4 26 22 28
REMARK H PARENT 17 13 18 15 13 17 20 19 3 25 4 27 22 29
REMARK Flexibility Score: inf
ROOT
ATOM      1  O   UNL     1      -4.722  62.095  37.352  1.00  0.00    -0.341 OA
ATOM      2  C   UNL     1      -2.935  60.995  36.258  1.00  0.00     0.179 C 
ATOM      3  C   UNL     1      -4.002  62.072  36.104  1.00  0.00     0.179 C 
ATOM      4  C   UNL     1      -2.608  61.105  37.731  1.00  0.00     0.202 C 
ATOM      5  C   UNL     1      -4.005  61.291  38.307  1.00  0.00     0.293 C 
ENDROOT
BRANCH   5   6
ATOM      6  O   UNL     1      -3.951  61.883  39.593  1.00  0.00    -0.253 OA
BRANCH   6   7
ATOM      7  P   UNL     1      -3.730  60.957  40.902  1.00  0.00     0.483 P 
ATOM      8  O   UNL     1      -3.896  59.484  40.667  1.00  0.00    -0.228 OA
BRANCH   7   9
ATOM      9  O   UNL     1      -4.739  61.570  42.007  1.00  0.00    -0.185 OA
BRANCH   9  10
ATOM     10  P   UNL     1      -5.308  63.068  42.209  1.00  0.00     0.478 P 
ATOM     11  O   UNL     1      -5.908  63.335  43.557  1.00  0.00    -0.228 OA
BRANCH  10  12
ATOM     12  O   UNL     1      -6.315  63.250  40.957  1.00  0.00    -0.302 OA
ATOM     13  H   UNL     1      -6.432  62.504  40.330  1.00  0.00     0.223 HD
ENDBRANCH  10  12
BRANCH  10  14
ATOM     14  O   UNL     1      -4.048  64.002  41.816  1.00  0.00    -0.302 OA
ATOM     15  H   UNL     1      -4.204  64.813  41.288  1.00  0.00     0.223 HD
ENDBRANCH  10  14
ENDBRANCH   9  10
ENDBRANCH   7   9
BRANCH   7  16
ATOM     16  O   UNL     1      -2.271  61.385  41.456  1.00  0.00    -0.302 OA
ATOM     17  H   UNL     1      -1.976  62.314  41.347  1.00  0.00     0.223 HD
ENDBRANCH   7  16
ENDBRANCH   6   7
ENDBRANCH   5   6
BRANCH   4  18
ATOM     18  O   UNL     1      -1.818  62.270  37.961  1.00  0.00    -0.385 OA
ATOM     19  H   UNL     1      -1.457  62.233  38.862  1.00  0.00     0.211 HD
ENDBRANCH   4  18
BRANCH   3  20
ATOM     20  C   UNL     1      -4.966  61.802  34.963  1.00  0.00     0.208 C 
BRANCH  20  21
ATOM     21  O   UNL     1      -4.223  61.419  33.817  1.00  0.00    -0.284 OA
BRANCH  21  22
ATOM     22  P   UNL     1      -3.789  62.565  32.761  1.00  0.00     0.469 P 
ATOM     23  O   UNL     1      -4.699  63.757  32.708  1.00  0.00    -0.228 OA
BRANCH  22  24
ATOM     24  O   UNL     1      -3.621  61.761  31.369  1.00  0.00    -0.303 OA
ATOM     25  H   UNL     1      -2.924  61.074  31.297  1.00  0.00     0.223 HD
ENDBRANCH  22  24
BRANCH  22  26
ATOM     26  O   UNL     1      -2.264  62.891  33.189  1.00  0.00    -0.303 OA
ATOM     27  H   UNL     1      -1.974  62.687  34.103  1.00  0.00     0.223 HD
ENDBRANCH  22  26
ENDBRANCH  21  22
ENDBRANCH  20  21
ENDBRANCH   3  20
BRANCH   2  28
ATOM     28  O   UNL     1      -1.826  61.227  35.417  1.00  0.00    -0.387 OA
ATOM     29  H   UNL     1      -1.257  61.885  35.852  1.00  0.00     0.211 HD
ENDBRANCH   2  28
TORSDOF 14
ENDMDL
MODEL 4
REMARK VINA RESULT:    -5.837      2.216      5.458
REMARK INTER + INTRA:         -11.442
REMARK INTER:                  -9.702
REMARK INTRA:                  -1.740
REMARK UNBOUND:                -2.023
REMARK SMILES O=P(O)(O)OC[C@H]1O[C@H](O[P@@](=O)(O)OP(=O)(O)O)[C@H](O)[C@@H]1O
REMARK SMILES IDX 8 1 21 2 7 3 19 4 9 5 10 6 11 7 12 8 14 9 15 10 16 11 17 12
REMARK SMILES IDX 18 14 13 16 20 18 6 20 5 21 2 22 1 23 3 24 4 26 22 28
REMARK H PARENT 17 13 18 15 13 17 20 19 3 25 4 27 22 29
REMARK Flexibility Score: inf
ROOT
ATOM      1  O   UNL     1      -4.725  62.287  37.162  1.00  0.00    -0.341 OA
ATOM      2  C   UNL     1      -2.917  61.017  36.314  1.00  0.00     0.179 C 
ATOM      3  C   UNL     1      -3.954  62.077  35.963  1.00  0.00     0.179 C 
ATOM      4  C   UNL     1      -2.650  61.329  37.770  1.00  0.00     0.202 C 
ATOM      5  C   UNL     1      -4.066  61.615  38.252  1.00  0.00     0.293 C 
ENDROOT
BRANCH   5   6
ATOM      6  O   UNL     1      -4.054  62.383  39.443  1.00  0.00    -0.253 OA
BRANCH   6   7
ATOM      7  P   UNL     1      -5.130  62.078  40.613  1.00  0.00     0.483 P 
ATOM      8  O   UNL     1      -4.706  61.030  41.601  1.00  0.00    -0.228 OA
BRANCH   7   9
ATOM      9  O   UNL     1      -6.499  61.731  39.825  1.00  0.00    -0.185 OA
BRANCH   9  10
ATOM     10  P   UNL     1      -7.505  62.672  38.982  1.00  0.00     0.478 P 
ATOM     11  O   UNL     1      -8.844  62.889  39.622  1.00  0.00    -0.228 OA
BRANCH  10  12
ATOM     12  O   UNL     1      -7.540  61.963  37.530  1.00  0.00    -0.302 OA
ATOM     13  H   UNL     1      -7.182  61.054  37.437  1.00  0.00     0.223 HD
ENDBRANCH  10  12
BRANCH  10  14
ATOM     14  O   UNL     1      -6.636  64.011  38.726  1.00  0.00    -0.302 OA
ATOM     15  H   UNL     1      -6.160  64.420  39.480  1.00  0.00     0.223 HD
ENDBRANCH  10  14
ENDBRANCH   9  10
ENDBRANCH   7   9
BRANCH   7  16
ATOM     16  O   UNL     1      -5.435  63.526  41.266  1.00  0.00    -0.302 OA
ATOM     17  H   UNL     1      -5.130  63.708  42.181  1.00  0.00     0.223 HD
ENDBRANCH   7  16
ENDBRANCH   6   7
ENDBRANCH   5   6
BRANCH   4  18
ATOM     18  O   UNL     1      -1.847  62.504  37.869  1.00  0.00    -0.385 OA
ATOM     19  H   UNL     1      -1.953  62.884  38.757  1.00  0.00     0.211 HD
ENDBRANCH   4  18
BRANCH   3  20
ATOM     20  C   UNL     1      -4.874  61.663  34.829  1.00  0.00     0.208 C 
BRANCH  20  21
ATOM     21  O   UNL     1      -4.088  61.369  33.686  1.00  0.00    -0.284 OA
BRANCH  21  22
ATOM     22  P   UNL     1      -3.624  62.592  32.733  1.00  0.00     0.469 P 
ATOM     23  O   UNL     1      -4.561  63.764  32.704  1.00  0.00    -0.228 OA
BRANCH  22  24
ATOM     24  O   UNL     1      -3.356  61.886  31.304  1.00  0.00    -0.303 OA
ATOM     25  H   UNL     1      -2.430  61.740  31.012  1.00  0.00     0.223 HD
ENDBRANCH  22  24
BRANCH  22  26
ATOM     26  O   UNL     1      -2.135  62.923  33.271  1.00  0.00    -0.303 OA
ATOM     27  H   UNL     1      -1.730  62.331  33.940  1.00  0.00     0.223 HD
ENDBRANCH  22  26
ENDBRANCH  21  22
ENDBRANCH  20  21
ENDBRANCH   3  20
BRANCH   2  28
ATOM     28  O   UNL     1      -1.768  61.112  35.500  1.00  0.00    -0.387 OA
ATOM     29  H   UNL     1      -1.163  60.396  35.758  1.00  0.00     0.211 HD
ENDBRANCH   2  28
TORSDOF 14
ENDMDL
MODEL 5
REMARK VINA RESULT:    -5.627      2.590      5.803
REMARK INTER + INTRA:         -11.104
REMARK INTER:                  -9.674
REMARK INTRA:                  -1.430
REMARK UNBOUND:                -2.023
REMARK SMILES O=P(O)(O)OC[C@H]1O[C@H](O[P@@](=O)(O)OP(=O)(O)O)[C@H](O)[C@@H]1O
REMARK SMILES IDX 8 1 21 2 7 3 19 4 9 5 10 6 11 7 12 8 14 9 15 10 16 11 17 12
REMARK SMILES IDX 18 14 13 16 20 18 6 20 5 21 2 22 1 23 3 24 4 26 22 28
REMARK H PARENT 17 13 18 15 13 17 20 19 3 25 4 27 22 29
REMARK Flexibility Score: inf
ROOT
ATOM      1  O   UNL     1      -5.004  62.600  37.000  1.00  0.00    -0.341 OA
ATOM      2  C   UNL     1      -3.109  61.212  37.292  1.00  0.00     0.179 C 
ATOM      3  C   UNL     1      -3.735  62.275  36.399  1.00  0.00     0.179 C 
ATOM      4  C   UNL     1      -3.624  61.624  38.654  1.00  0.00     0.202 C 
ATOM      5  C   UNL     1      -5.059  61.991  38.304  1.00  0.00     0.293 C 
ENDROOT
BRANCH   5   6
ATOM      6  O   UNL     1      -5.621  62.845  39.284  1.00  0.00    -0.253 OA
BRANCH   6   7
ATOM      7  P   UNL     1      -6.951  62.392  40.087  1.00  0.00     0.483 P 
ATOM      8  O   UNL     1      -8.232  62.976  39.565  1.00  0.00    -0.228 OA
BRANCH   7   9
ATOM      9  O   UNL     1      -6.638  62.757  41.631  1.00  0.00    -0.185 OA
BRANCH   9  10
ATOM     10  P   UNL     1      -5.264  62.691  42.478  1.00  0.00     0.478 P 
ATOM     11  O   UNL     1      -5.433  62.850  43.960  1.00  0.00    -0.228 OA
BRANCH  10  12
ATOM     12  O   UNL     1      -4.340  63.809  41.765  1.00  0.00    -0.302 OA
ATOM     13  H   UNL     1      -3.364  63.719  41.812  1.00  0.00     0.223 HD
ENDBRANCH  10  12
BRANCH  10  14
ATOM     14  O   UNL     1      -4.600  61.296  42.004  1.00  0.00    -0.302 OA
ATOM     15  H   UNL     1      -3.794  61.319  41.446  1.00  0.00     0.223 HD
ENDBRANCH  10  14
ENDBRANCH   9  10
ENDBRANCH   7   9
BRANCH   7  16
ATOM     16  O   UNL     1      -6.900  60.775  40.071  1.00  0.00    -0.302 OA
ATOM     17  H   UNL     1      -7.730  60.276  39.913  1.00  0.00     0.223 HD
ENDBRANCH   7  16
ENDBRANCH   6   7
ENDBRANCH   5   6
BRANCH   4  18
ATOM     18  O   UNL     1      -2.914  62.775  39.106  1.00  0.00    -0.385 OA
ATOM     19  H   UNL     1      -3.296  63.565  38.688  1.00  0.00     0.211 HD
ENDBRANCH   4  18
BRANCH   3  20
ATOM     20  C   UNL     1      -3.951  61.807  34.970  1.00  0.00     0.208 C 
BRANCH  20  21
ATOM     21  O   UNL     1      -3.033  62.481  34.125  1.00  0.00    -0.284 OA
BRANCH  21  22
ATOM     22  P   UNL     1      -3.560  63.028  32.696  1.00  0.00     0.469 P 
ATOM     23  O   UNL     1      -3.680  61.987  31.622  1.00  0.00    -0.228 OA
BRANCH  22  24
ATOM     24  O   UNL     1      -2.560  64.254  32.361  1.00  0.00    -0.303 OA
ATOM     25  H   UNL     1      -1.727  64.341  32.873  1.00  0.00     0.223 HD
ENDBRANCH  22  24
BRANCH  22  26
ATOM     26  O   UNL     1      -4.943  63.771  33.083  1.00  0.00    -0.303 OA
ATOM     27  H   UNL     1      -5.591  63.968  32.373  1.00  0.00     0.223 HD
ENDBRANCH  22  26
ENDBRANCH  21  22
ENDBRANCH  20  21
ENDBRANCH   3  20
BRANCH   2  28
ATOM     28  O   UNL     1      -1.701  61.207  37.202  1.00  0.00    -0.387 OA
ATOM     29  H   UNL     1      -1.405  62.132  37.151  1.00  0.00     0.211 HD
ENDBRANCH   2  28
TORSDOF 14
ENDMDL
MODEL 6
REMARK VINA RESULT:    -5.617      2.125      3.204
REMARK INTER + INTRA:         -11.088
REMARK INTER:                  -9.944
REMARK INTRA:                  -1.144
REMARK UNBOUND:                -2.023
REMARK SMILES O=P(O)(O)OC[C@H]1O[C@H](O[P@@](=O)(O)OP(=O)(O)O)[C@H](O)[C@@H]1O
REMARK SMILES IDX 8 1 21 2 7 3 19 4 9 5 10 6 11 7 12 8 14 9 15 10 16 11 17 12
REMARK SMILES IDX 18 14 13 16 20 18 6 20 5 21 2 22 1 23 3 24 4 26 22 28
REMARK H PARENT 17 13 18 15 13 17 20 19 3 25 4 27 22 29
REMARK Flexibility Score: inf
ROOT
ATOM      1  O   UNL     1      -3.064  61.854  38.725  1.00  0.00    -0.341 OA
ATOM      2  C   UNL     1      -4.753  62.576  40.217  1.00  0.00     0.179 C 
ATOM      3  C   UNL     1      -3.270  62.250  40.095  1.00  0.00     0.179 C 
ATOM      4  C   UNL     1      -5.054  63.128  38.841  1.00  0.00     0.202 C 
ATOM      5  C   UNL     1      -4.258  62.158  37.979  1.00  0.00     0.293 C 
ENDROOT
BRANCH   5   6
ATOM      6  O   UNL     1      -3.982  62.716  36.706  1.00  0.00    -0.253 OA
BRANCH   6   7
ATOM      7  P   UNL     1      -3.930  61.764  35.398  1.00  0.00     0.483 P 
ATOM      8  O   UNL     1      -3.301  60.419  35.623  1.00  0.00    -0.228 OA
BRANCH   7   9
ATOM      9  O   UNL     1      -3.192  62.660  34.273  1.00  0.00    -0.185 OA
BRANCH   9  10
ATOM     10  P   UNL     1      -3.637  63.053  32.770  1.00  0.00     0.478 P 
ATOM     11  O   UNL     1      -3.682  61.902  31.809  1.00  0.00    -0.228 OA
BRANCH  10  12
ATOM     12  O   UNL     1      -2.608  64.237  32.381  1.00  0.00    -0.302 OA
ATOM     13  H   UNL     1      -1.645  64.083  32.488  1.00  0.00     0.223 HD
ENDBRANCH  10  12
BRANCH  10  14
ATOM     14  O   UNL     1      -5.039  63.828  32.987  1.00  0.00    -0.302 OA
ATOM     15  H   UNL     1      -5.062  64.804  32.891  1.00  0.00     0.223 HD
ENDBRANCH  10  14
ENDBRANCH   9  10
ENDBRANCH   7   9
BRANCH   7  16
ATOM     16  O   UNL     1      -5.462  61.706  34.881  1.00  0.00    -0.302 OA
ATOM     17  H   UNL     1      -5.727  60.990  34.264  1.00  0.00     0.223 HD
ENDBRANCH   7  16
ENDBRANCH   6   7
ENDBRANCH   5   6
BRANCH   4  18
ATOM     18  O   UNL     1      -4.520  64.445  38.727  1.00  0.00    -0.385 OA
ATOM     19  H   UNL     1      -4.347  64.794  39.617  1.00  0.00     0.211 HD
ENDBRANCH   4  18
BRANCH   3  20
ATOM     20  C   UNL     1      -2.823  61.133  41.022  1.00  0.00     0.208 C 
BRANCH  20  21
ATOM     21  O   UNL     1      -3.715  60.040  40.885  1.00  0.00    -0.284 OA
BRANCH  21  22
ATOM     22  P   UNL     1      -3.113  58.605  40.439  1.00  0.00     0.469 P 
ATOM     23  O   UNL     1      -4.123  57.501  40.326  1.00  0.00    -0.228 OA
BRANCH  22  24
ATOM     24  O   UNL     1      -1.918  58.344  41.495  1.00  0.00    -0.303 OA
ATOM     25  H   UNL     1      -2.050  58.596  42.435  1.00  0.00     0.223 HD
ENDBRANCH  22  24
BRANCH  22  26
ATOM     26  O   UNL     1      -2.328  58.954  39.068  1.00  0.00    -0.303 OA
ATOM     27  H   UNL     1      -2.697  59.640  38.472  1.00  0.00     0.223 HD
ENDBRANCH  22  26
ENDBRANCH  21  22
ENDBRANCH  20  21
ENDBRANCH   3  20
BRANCH   2  28
ATOM     28  O   UNL     1      -5.008  63.493  41.259  1.00  0.00    -0.387 OA
ATOM     29  H   UNL     1      -5.856  63.249  41.667  1.00  0.00     0.211 HD
ENDBRANCH   2  28
TORSDOF 14
ENDMDL
MODEL 7
REMARK VINA RESULT:    -5.571      1.838      4.115
REMARK INTER + INTRA:         -11.013
REMARK INTER:                  -9.663
REMARK INTRA:                  -1.349
REMARK UNBOUND:                -2.023
REMARK SMILES O=P(O)(O)OC[C@H]1O[C@H](O[P@@](=O)(O)OP(=O)(O)O)[C@H](O)[C@@H]1O
REMARK SMILES IDX 8 1 21 2 7 3 19 4 9 5 10 6 11 7 12 8 14 9 15 10 16 11 17 12
REMARK SMILES IDX 18 14 13 16 20 18 6 20 5 21 2 22 1 23 3 24 4 26 22 28
REMARK H PARENT 17 13 18 15 13 17 20 19 3 25 4 27 22 29
REMARK Flexibility Score: inf
ROOT
ATOM      1  O   UNL     1      -4.524  62.617  36.603  1.00  0.00    -0.341 OA
ATOM      2  C   UNL     1      -2.935  61.035  37.361  1.00  0.00     0.179 C 
ATOM      3  C   UNL     1      -3.146  62.230  36.439  1.00  0.00     0.179 C 
ATOM      4  C   UNL     1      -3.870  61.368  38.502  1.00  0.00     0.202 C 
ATOM      5  C   UNL     1      -5.068  61.900  37.728  1.00  0.00     0.293 C 
ENDROOT
BRANCH   5   6
ATOM      6  O   UNL     1      -5.888  62.711  38.550  1.00  0.00    -0.253 OA
BRANCH   6   7
ATOM      7  P   UNL     1      -7.456  62.900  38.195  1.00  0.00     0.483 P 
ATOM      8  O   UNL     1      -8.390  62.728  39.358  1.00  0.00    -0.228 OA
BRANCH   7   9
ATOM      9  O   UNL     1      -7.722  61.874  36.974  1.00  0.00    -0.185 OA
BRANCH   9  10
ATOM     10  P   UNL     1      -7.625  62.081  35.375  1.00  0.00     0.478 P 
ATOM     11  O   UNL     1      -7.384  63.496  34.940  1.00  0.00    -0.228 OA
BRANCH  10  12
ATOM     12  O   UNL     1      -8.997  61.418  34.836  1.00  0.00    -0.302 OA
ATOM     13  H   UNL     1      -9.849  61.705  35.228  1.00  0.00     0.223 HD
ENDBRANCH  10  12
BRANCH  10  14
ATOM     14  O   UNL     1      -6.492  61.018  34.929  1.00  0.00    -0.302 OA
ATOM     15  H   UNL     1      -6.368  60.204  35.463  1.00  0.00     0.223 HD
ENDBRANCH  10  14
ENDBRANCH   9  10
ENDBRANCH   7   9
BRANCH   7  16
ATOM     16  O   UNL     1      -7.536  64.351  37.484  1.00  0.00    -0.302 OA
ATOM     17  H   UNL     1      -7.490  65.156  38.043  1.00  0.00     0.223 HD
ENDBRANCH   7  16
ENDBRANCH   6   7
ENDBRANCH   5   6
BRANCH   4  18
ATOM     18  O   UNL     1      -3.300  62.402  39.303  1.00  0.00    -0.385 OA
ATOM     19  H   UNL     1      -3.409  63.252  38.845  1.00  0.00     0.211 HD
ENDBRANCH   4  18
BRANCH   3  20
ATOM     20  C   UNL     1      -2.873  61.916  34.979  1.00  0.00     0.208 C 
BRANCH  20  21
ATOM     21  O   UNL     1      -4.033  62.220  34.221  1.00  0.00    -0.284 OA
BRANCH  21  22
ATOM     22  P   UNL     1      -3.866  63.113  32.882  1.00  0.00     0.469 P 
ATOM     23  O   UNL     1      -2.724  64.087  32.906  1.00  0.00    -0.228 OA
BRANCH  22  24
ATOM     24  O   UNL     1      -5.329  63.768  32.672  1.00  0.00    -0.303 OA
ATOM     25  H   UNL     1      -5.933  63.379  32.005  1.00  0.00     0.223 HD
ENDBRANCH  22  24
BRANCH  22  26
ATOM     26  O   UNL     1      -3.787  61.998  31.713  1.00  0.00    -0.303 OA
ATOM     27  H   UNL     1      -4.621  61.640  31.341  1.00  0.00     0.223 HD
ENDBRANCH  22  26
ENDBRANCH  21  22
ENDBRANCH  20  21
ENDBRANCH   3  20
BRANCH   2  28
ATOM     28  O   UNL     1      -1.587  60.906  37.758  1.00  0.00    -0.387 OA
ATOM     29  H   UNL     1      -1.252  61.795  37.960  1.00  0.00     0.211 HD
ENDBRANCH   2  28
TORSDOF 14
ENDMDL
MODEL 8
REMARK VINA RESULT:    -5.556      2.464      4.135
REMARK INTER + INTRA:         -10.989
REMARK INTER:                  -9.664
REMARK INTRA:                  -1.325
REMARK UNBOUND:                -2.023
REMARK SMILES O=P(O)(O)OC[C@H]1O[C@H](O[P@@](=O)(O)OP(=O)(O)O)[C@H](O)[C@@H]1O
REMARK SMILES IDX 8 1 21 2 7 3 19 4 9 5 10 6 11 7 12 8 14 9 15 10 16 11 17 12
REMARK SMILES IDX 18 14 13 16 20 18 6 20 5 21 2 22 1 23 3 24 4 26 22 28
REMARK H PARENT 17 13 18 15 13 17 20 19 3 25 4 27 22 29
REMARK Flexibility Score: inf
ROOT
ATOM      1  O   UNL     1      -3.775  62.102  38.755  1.00  0.00    -0.341 OA
ATOM      2  C   UNL     1      -5.817  62.375  39.921  1.00  0.00     0.179 C 
ATOM      3  C   UNL     1      -4.300  62.434  40.056  1.00  0.00     0.179 C 
ATOM      4  C   UNL     1      -6.009  62.833  38.492  1.00  0.00     0.202 C 
ATOM      5  C   UNL     1      -4.864  62.095  37.813  1.00  0.00     0.293 C 
ENDROOT
BRANCH   5   6
ATOM      6  O   UNL     1      -4.526  62.704  36.579  1.00  0.00    -0.253 OA
BRANCH   6   7
ATOM      7  P   UNL     1      -4.116  61.788  35.309  1.00  0.00     0.483 P 
ATOM      8  O   UNL     1      -3.458  60.484  35.659  1.00  0.00    -0.228 OA
BRANCH   7   9
ATOM      9  O   UNL     1      -3.212  62.758  34.384  1.00  0.00    -0.185 OA
BRANCH   9  10
ATOM     10  P   UNL     1      -3.380  63.210  32.842  1.00  0.00     0.478 P 
ATOM     11  O   UNL     1      -2.339  64.174  32.355  1.00  0.00    -0.228 OA
BRANCH  10  12
ATOM     12  O   UNL     1      -4.902  63.750  32.781  1.00  0.00    -0.302 OA
ATOM     13  H   UNL     1      -5.061  64.718  32.749  1.00  0.00     0.223 HD
ENDBRANCH  10  12
BRANCH  10  14
ATOM     14  O   UNL     1      -3.447  61.805  32.046  1.00  0.00    -0.302 OA
ATOM     15  H   UNL     1      -3.218  61.787  31.093  1.00  0.00     0.223 HD
ENDBRANCH  10  14
ENDBRANCH   9  10
ENDBRANCH   7   9
BRANCH   7  16
ATOM     16  O   UNL     1      -5.486  61.638  34.462  1.00  0.00    -0.302 OA
ATOM     17  H   UNL     1      -5.432  61.418  33.508  1.00  0.00     0.223 HD
ENDBRANCH   7  16
ENDBRANCH   6   7
ENDBRANCH   5   6
BRANCH   4  18
ATOM     18  O   UNL     1      -5.808  64.242  38.409  1.00  0.00    -0.385 OA
ATOM     19  H   UNL     1      -6.111  64.553  37.540  1.00  0.00     0.211 HD
ENDBRANCH   4  18
BRANCH   3  20
ATOM     20  C   UNL     1      -3.752  61.467  41.090  1.00  0.00     0.208 C 
BRANCH  20  21
ATOM     21  O   UNL     1      -4.838  60.829  41.741  1.00  0.00    -0.284 OA
BRANCH  21  22
ATOM     22  P   UNL     1      -5.019  61.047  43.334  1.00  0.00     0.469 P 
ATOM     23  O   UNL     1      -4.754  59.832  44.175  1.00  0.00    -0.228 OA
BRANCH  22  24
ATOM     24  O   UNL     1      -6.503  61.671  43.471  1.00  0.00    -0.303 OA
ATOM     25  H   UNL     1      -6.601  62.636  43.620  1.00  0.00     0.223 HD
ENDBRANCH  22  24
BRANCH  22  26
ATOM     26  O   UNL     1      -4.054  62.309  43.637  1.00  0.00    -0.303 OA
ATOM     27  H   UNL     1      -4.018  63.045  42.989  1.00  0.00     0.223 HD
ENDBRANCH  22  26
ENDBRANCH  21  22
ENDBRANCH  20  21
ENDBRANCH   3  20
BRANCH   2  28
ATOM     28  O   UNL     1      -6.464  63.199  40.867  1.00  0.00    -0.387 OA
ATOM     29  H   UNL     1      -7.342  63.421  40.514  1.00  0.00     0.211 HD
ENDBRANCH   2  28
TORSDOF 14
ENDMDL
MODEL 9
REMARK VINA RESULT:    -5.531      2.193      4.092
REMARK INTER + INTRA:         -10.949
REMARK INTER:                  -9.875
REMARK INTRA:                  -1.074
REMARK UNBOUND:                -2.023
REMARK SMILES O=P(O)(O)OC[C@H]1O[C@H](O[P@@](=O)(O)OP(=O)(O)O)[C@H](O)[C@@H]1O
REMARK SMILES IDX 8 1 21 2 7 3 19 4 9 5 10 6 11 7 12 8 14 9 15 10 16 11 17 12
REMARK SMILES IDX 18 14 13 16 20 18 6 20 5 21 2 22 1 23 3 24 4 26 22 28
REMARK H PARENT 17 13 18 15 13 17 20 19 3 25 4 27 22 29
REMARK Flexibility Score: inf
ROOT
ATOM      1  O   UNL     1      -4.556  60.871  38.233  1.00  0.00    -0.341 OA
ATOM      2  C   UNL     1      -3.393  62.499  39.498  1.00  0.00     0.179 C 
ATOM      3  C   UNL     1      -3.852  61.046  39.477  1.00  0.00     0.179 C 
ATOM      4  C   UNL     1      -3.139  62.754  38.028  1.00  0.00     0.202 C 
ATOM      5  C   UNL     1      -4.334  62.037  37.416  1.00  0.00     0.293 C 
ENDROOT
BRANCH   5   6
ATOM      6  O   UNL     1      -4.095  61.716  36.057  1.00  0.00    -0.253 OA
BRANCH   6   7
ATOM      7  P   UNL     1      -5.314  61.740  34.993  1.00  0.00     0.483 P 
ATOM      8  O   UNL     1      -5.699  60.395  34.446  1.00  0.00    -0.228 OA
BRANCH   7   9
ATOM      9  O   UNL     1      -4.850  62.804  33.867  1.00  0.00    -0.185 OA
BRANCH   9  10
ATOM     10  P   UNL     1      -3.550  62.836  32.910  1.00  0.00     0.478 P 
ATOM     11  O   UNL     1      -3.682  62.038  31.647  1.00  0.00    -0.228 OA
BRANCH  10  12
ATOM     12  O   UNL     1      -2.357  62.372  33.897  1.00  0.00    -0.302 OA
ATOM     13  H   UNL     1      -2.040  62.996  34.584  1.00  0.00     0.223 HD
ENDBRANCH  10  12
BRANCH  10  14
ATOM     14  O   UNL     1      -3.276  64.416  32.704  1.00  0.00    -0.302 OA
ATOM     15  H   UNL     1      -2.374  64.766  32.866  1.00  0.00     0.223 HD
ENDBRANCH  10  14
ENDBRANCH   9  10
ENDBRANCH   7   9
BRANCH   7  16
ATOM     16  O   UNL     1      -6.507  62.513  35.765  1.00  0.00    -0.302 OA
ATOM     17  H   UNL     1      -6.376  63.450  36.023  1.00  0.00     0.223 HD
ENDBRANCH   7  16
ENDBRANCH   6   7
ENDBRANCH   5   6
BRANCH   4  18
ATOM     18  O   UNL     1      -1.924  62.117  37.635  1.00  0.00    -0.385 OA
ATOM     19  H   UNL     1      -2.128  61.223  37.312  1.00  0.00     0.211 HD
ENDBRANCH   4  18
BRANCH   3  20
ATOM     20  C   UNL     1      -4.765  60.690  40.636  1.00  0.00     0.208 C 
BRANCH  20  21
ATOM     21  O   UNL     1      -4.952  61.841  41.443  1.00  0.00    -0.284 OA
BRANCH  21  22
ATOM     22  P   UNL     1      -6.415  62.532  41.474  1.00  0.00     0.469 P 
ATOM     23  O   UNL     1      -6.928  62.991  40.141  1.00  0.00    -0.228 OA
BRANCH  22  24
ATOM     24  O   UNL     1      -6.270  63.688  42.595  1.00  0.00    -0.303 OA
ATOM     25  H   UNL     1      -6.544  63.493  43.517  1.00  0.00     0.223 HD
ENDBRANCH  22  24
BRANCH  22  26
ATOM     26  O   UNL     1      -7.325  61.414  42.208  1.00  0.00    -0.303 OA
ATOM     27  H   UNL     1      -8.181  61.158  41.801  1.00  0.00     0.223 HD
ENDBRANCH  22  26
ENDBRANCH  21  22
ENDBRANCH  20  21
ENDBRANCH   3  20
BRANCH   2  28
ATOM     28  O   UNL     1      -2.251  62.681  40.306  1.00  0.00    -0.387 OA
ATOM     29  H   UNL     1      -1.576  63.128  39.767  1.00  0.00     0.211 HD
ENDBRANCH   2  28
TORSDOF 14
ENDMDL
MODEL 10
REMARK VINA RESULT:    -5.372      1.659      4.366
REMARK INTER + INTRA:         -10.692
REMARK INTER:                  -9.325
REMARK INTRA:                  -1.367
REMARK UNBOUND:                -2.023
REMARK SMILES O=P(O)(O)OC[C@H]1O[C@H](O[P@@](=O)(O)OP(=O)(O)O)[C@H](O)[C@@H]1O
REMARK SMILES IDX 8 1 21 2 7 3 19 4 9 5 10 6 11 7 12 8 14 9 15 10 16 11 17 12
REMARK SMILES IDX 18 14 13 16 20 18 6 20 5 21 2 22 1 23 3 24 4 26 22 28
REMARK H PARENT 17 13 18 15 13 17 20 19 3 25 4 27 22 29
REMARK Flexibility Score: inf
ROOT
ATOM      1  O   UNL     1      -4.687  61.148  37.252  1.00  0.00    -0.341 OA
ATOM      2  C   UNL     1      -3.536  62.559  38.764  1.00  0.00     0.179 C 
ATOM      3  C   UNL     1      -4.269  61.230  38.628  1.00  0.00     0.179 C 
ATOM      4  C   UNL     1      -2.901  62.692  37.397  1.00  0.00     0.202 C 
ATOM      5  C   UNL     1      -4.044  62.207  36.517  1.00  0.00     0.293 C 
ENDROOT
BRANCH   5   6
ATOM      6  O   UNL     1      -3.570  61.786  35.250  1.00  0.00    -0.253 OA
BRANCH   6   7
ATOM      7  P   UNL     1      -4.414  62.131  33.913  1.00  0.00     0.483 P 
ATOM      8  O   UNL     1      -4.331  63.563  33.468  1.00  0.00    -0.228 OA
BRANCH   7   9
ATOM      9  O   UNL     1      -5.915  61.626  34.239  1.00  0.00    -0.185 OA
BRANCH   9  10
ATOM     10  P   UNL     1      -7.263  62.451  34.575  1.00  0.00     0.478 P 
ATOM     11  O   UNL     1      -8.534  61.762  34.178  1.00  0.00    -0.228 OA
BRANCH  10  12
ATOM     12  O   UNL     1      -7.002  63.881  33.868  1.00  0.00    -0.302 OA
ATOM     13  H   UNL     1      -6.934  64.683  34.429  1.00  0.00     0.223 HD
ENDBRANCH  10  12
BRANCH  10  14
ATOM     14  O   UNL     1      -7.117  62.778  36.151  1.00  0.00    -0.302 OA
ATOM     15  H   UNL     1      -6.596  62.169  36.716  1.00  0.00     0.223 HD
ENDBRANCH  10  14
ENDBRANCH   9  10
ENDBRANCH   7   9
BRANCH   7  16
ATOM     16  O   UNL     1      -3.892  61.061  32.819  1.00  0.00    -0.302 OA
ATOM     17  H   UNL     1      -4.290  60.164  32.805  1.00  0.00     0.223 HD
ENDBRANCH   7  16
ENDBRANCH   6   7
ENDBRANCH   5   6
BRANCH   4  18
ATOM     18  O   UNL     1      -1.789  61.805  37.297  1.00  0.00    -0.385 OA
ATOM     19  H   UNL     1      -2.089  60.965  36.912  1.00  0.00     0.211 HD
ENDBRANCH   4  18
BRANCH   3  20
ATOM     20  C   UNL     1      -5.480  61.118  39.538  1.00  0.00     0.208 C 
BRANCH  20  21
ATOM     21  O   UNL     1      -6.612  61.632  38.857  1.00  0.00    -0.284 OA
BRANCH  21  22
ATOM     22  P   UNL     1      -7.340  62.948  39.457  1.00  0.00     0.469 P 
ATOM     23  O   UNL     1      -8.839  62.881  39.497  1.00  0.00    -0.228 OA
BRANCH  22  24
ATOM     24  O   UNL     1      -6.726  64.159  38.581  1.00  0.00    -0.303 OA
ATOM     25  H   UNL     1      -6.314  64.920  39.045  1.00  0.00     0.223 HD
ENDBRANCH  22  24
BRANCH  22  26
ATOM     26  O   UNL     1      -6.627  63.130  40.897  1.00  0.00    -0.303 OA
ATOM     27  H   UNL     1      -6.913  62.562  41.643  1.00  0.00     0.223 HD
ENDBRANCH  22  26
ENDBRANCH  21  22
ENDBRANCH  20  21
ENDBRANCH   3  20
BRANCH   2  28
ATOM     28  O   UNL     1      -2.599  62.540  39.819  1.00  0.00    -0.387 OA
ATOM     29  H   UNL     1      -1.959  63.254  39.659  1.00  0.00     0.211 HD
ENDBRANCH   2  28
TORSDOF 14
ENDMDL
MODEL 11
REMARK VINA RESULT:    -5.367      2.291      4.235
REMARK INTER + INTRA:         -10.684
REMARK INTER:                  -9.161
REMARK INTRA:                  -1.523
REMARK UNBOUND:                -2.023
REMARK SMILES O=P(O)(O)OC[C@H]1O[C@H](O[P@@](=O)(O)OP(=O)(O)O)[C@H](O)[C@@H]1O
REMARK SMILES IDX 8 1 21 2 7 3 19 4 9 5 10 6 11 7 12 8 14 9 15 10 16 11 17 12
REMARK SMILES IDX 18 14 13 16 20 18 6 20 5 21 2 22 1 23 3 24 4 26 22 28
REMARK H PARENT 17 13 18 15 13 17 20 19 3 25 4 27 22 29
REMARK Flexibility Score: inf
ROOT
ATOM      1  O   UNL     1      -5.001  62.636  38.121  1.00  0.00    -0.341 OA
ATOM      2  C   UNL     1      -3.271  62.550  39.733  1.00  0.00     0.179 C 
ATOM      3  C   UNL     1      -4.734  62.216  39.473  1.00  0.00     0.179 C 
ATOM      4  C   UNL     1      -2.667  62.341  38.362  1.00  0.00     0.202 C 
ATOM      5  C   UNL     1      -3.748  62.963  37.490  1.00  0.00     0.293 C 
ENDROOT
BRANCH   5   6
ATOM      6  O   UNL     1      -3.664  62.489  36.157  1.00  0.00    -0.253 OA
BRANCH   6   7
ATOM      7  P   UNL     1      -4.826  61.531  35.564  1.00  0.00     0.483 P 
ATOM      8  O   UNL     1      -4.932  60.186  36.223  1.00  0.00    -0.228 OA
BRANCH   7   9
ATOM      9  O   UNL     1      -4.530  61.470  33.976  1.00  0.00    -0.185 OA
BRANCH   9  10
ATOM     10  P   UNL     1      -3.860  62.551  32.980  1.00  0.00     0.478 P 
ATOM     11  O   UNL     1      -4.680  63.786  32.752  1.00  0.00    -0.228 OA
BRANCH  10  12
ATOM     12  O   UNL     1      -3.541  61.681  31.655  1.00  0.00    -0.302 OA
ATOM     13  H   UNL     1      -4.140  61.757  30.882  1.00  0.00     0.223 HD
ENDBRANCH  10  12
BRANCH  10  14
ATOM     14  O   UNL     1      -2.400  62.800  33.627  1.00  0.00    -0.302 OA
ATOM     15  H   UNL     1      -1.648  63.013  33.034  1.00  0.00     0.223 HD
ENDBRANCH  10  14
ENDBRANCH   9  10
ENDBRANCH   7   9
BRANCH   7  16
ATOM     16  O   UNL     1      -6.171  62.426  35.656  1.00  0.00    -0.302 OA
ATOM     17  H   UNL     1      -6.140  63.281  36.137  1.00  0.00     0.223 HD
ENDBRANCH   7  16
ENDBRANCH   6   7
ENDBRANCH   5   6
BRANCH   4  18
ATOM     18  O   UNL     1      -2.558  60.944  38.095  1.00  0.00    -0.385 OA
ATOM     19  H   UNL     1      -2.932  60.450  38.843  1.00  0.00     0.211 HD
ENDBRANCH   4  18
BRANCH   3  20
ATOM     20  C   UNL     1      -5.688  62.918  40.424  1.00  0.00     0.208 C 
BRANCH  20  21
ATOM     21  O   UNL     1      -5.097  62.964  41.712  1.00  0.00    -0.284 OA
BRANCH  21  22
ATOM     22  P   UNL     1      -5.574  61.884  42.819  1.00  0.00     0.469 P 
ATOM     23  O   UNL     1      -4.615  60.755  43.058  1.00  0.00    -0.228 OA
BRANCH  22  24
ATOM     24  O   UNL     1      -7.047  61.446  42.318  1.00  0.00    -0.303 OA
ATOM     25  H   UNL     1      -7.229  61.403  41.355  1.00  0.00     0.223 HD
ENDBRANCH  22  24
BRANCH  22  26
ATOM     26  O   UNL     1      -5.879  62.805  44.113  1.00  0.00    -0.303 OA
ATOM     27  H   UNL     1      -6.802  63.087  44.288  1.00  0.00     0.223 HD
ENDBRANCH  22  26
ENDBRANCH  21  22
ENDBRANCH  20  21
ENDBRANCH   3  20
BRANCH   2  28
ATOM     28  O   UNL     1      -2.709  61.721  40.727  1.00  0.00    -0.387 OA
ATOM     29  H   UNL     1      -3.015  60.813  40.564  1.00  0.00     0.211 HD
ENDBRANCH   2  28
TORSDOF 14
ENDMDL
MODEL 12
REMARK VINA RESULT:    -5.316      2.364      6.049
REMARK INTER + INTRA:         -10.601
REMARK INTER:                  -8.846
REMARK INTRA:                  -1.755
REMARK UNBOUND:                -2.023
REMARK SMILES O=P(O)(O)OC[C@H]1O[C@H](O[P@@](=O)(O)OP(=O)(O)O)[C@H](O)[C@@H]1O
REMARK SMILES IDX 8 1 21 2 7 3 19 4 9 5 10 6 11 7 12 8 14 9 15 10 16 11 17 12
REMARK SMILES IDX 18 14 13 16 20 18 6 20 5 21 2 22 1 23 3 24 4 26 22 28
REMARK H PARENT 17 13 18 15 13 17 20 19 3 25 4 27 22 29
REMARK Flexibility Score: inf
ROOT
ATOM      1  O   UNL     1      -4.156  62.767  36.380  1.00  0.00    -0.341 OA
ATOM      2  C   UNL     1      -3.492  60.558  35.850  1.00  0.00     0.179 C 
ATOM      3  C   UNL     1      -3.720  61.950  35.276  1.00  0.00     0.179 C 
ATOM      4  C   UNL     1      -3.019  60.885  37.250  1.00  0.00     0.202 C 
ATOM      5  C   UNL     1      -3.965  62.024  37.599  1.00  0.00     0.293 C 
ENDROOT
BRANCH   5   6
ATOM      6  O   UNL     1      -3.443  62.818  38.649  1.00  0.00    -0.253 OA
BRANCH   6   7
ATOM      7  P   UNL     1      -3.681  62.383  40.190  1.00  0.00     0.483 P 
ATOM      8  O   UNL     1      -2.667  61.421  40.736  1.00  0.00    -0.228 OA
BRANCH   7   9
ATOM      9  O   UNL     1      -5.202  61.835  40.225  1.00  0.00    -0.185 OA
BRANCH   9  10
ATOM     10  P   UNL     1      -6.611  62.620  40.310  1.00  0.00     0.478 P 
ATOM     11  O   UNL     1      -7.822  61.759  40.104  1.00  0.00    -0.228 OA
BRANCH  10  12
ATOM     12  O   UNL     1      -6.427  63.819  39.241  1.00  0.00    -0.302 OA
ATOM     13  H   UNL     1      -6.006  63.624  38.376  1.00  0.00     0.223 HD
ENDBRANCH  10  12
BRANCH  10  14
ATOM     14  O   UNL     1      -6.533  63.373  41.738  1.00  0.00    -0.302 OA
ATOM     15  H   UNL     1      -5.789  63.989  41.910  1.00  0.00     0.223 HD
ENDBRANCH  10  14
ENDBRANCH   9  10
ENDBRANCH   7   9
BRANCH   7  16
ATOM     16  O   UNL     1      -3.773  63.784  40.994  1.00  0.00    -0.302 OA
ATOM     17  H   UNL     1      -3.028  64.418  40.928  1.00  0.00     0.223 HD
ENDBRANCH   7  16
ENDBRANCH   6   7
ENDBRANCH   5   6
BRANCH   4  18
ATOM     18  O   UNL     1      -1.673  61.356  37.202  1.00  0.00    -0.385 OA
ATOM     19  H   UNL     1      -1.071  60.598  37.291  1.00  0.00     0.211 HD
ENDBRANCH   4  18
BRANCH   3  20
ATOM     20  C   UNL     1      -4.764  61.981  34.173  1.00  0.00     0.208 C 
BRANCH  20  21
ATOM     21  O   UNL     1      -6.000  61.530  34.701  1.00  0.00    -0.284 OA
BRANCH  21  22
ATOM     22  P   UNL     1      -7.206  62.599  34.860  1.00  0.00     0.469 P 
ATOM     23  O   UNL     1      -7.088  63.821  33.997  1.00  0.00    -0.228 OA
BRANCH  22  24
ATOM     24  O   UNL     1      -7.264  62.878  36.451  1.00  0.00    -0.303 OA
ATOM     25  H   UNL     1      -7.165  62.124  37.071  1.00  0.00     0.223 HD
ENDBRANCH  22  24
BRANCH  22  26
ATOM     26  O   UNL     1      -8.522  61.698  34.592  1.00  0.00    -0.303 OA
ATOM     27  H   UNL     1      -8.627  60.854  35.080  1.00  0.00     0.223 HD
ENDBRANCH  22  26
ENDBRANCH  21  22
ENDBRANCH  20  21
ENDBRANCH   3  20
BRANCH   2  28
ATOM     28  O   UNL     1      -2.553  59.822  35.097  1.00  0.00    -0.387 OA
ATOM     29  H   UNL     1      -2.944  58.954  34.903  1.00  0.00     0.211 HD
ENDBRANCH   2  28
TORSDOF 14
ENDMDL
MODEL 13
REMARK VINA RESULT:    -5.281      2.585      5.623
REMARK INTER + INTRA:         -10.546
REMARK INTER:                  -8.834
REMARK INTRA:                  -1.711
REMARK UNBOUND:                -2.023
REMARK SMILES O=P(O)(O)OC[C@H]1O[C@H](O[P@@](=O)(O)OP(=O)(O)O)[C@H](O)[C@@H]1O
REMARK SMILES IDX 8 1 21 2 7 3 19 4 9 5 10 6 11 7 12 8 14 9 15 10 16 11 17 12
REMARK SMILES IDX 18 14 13 16 20 18 6 20 5 21 2 22 1 23 3 24 4 26 22 28
REMARK H PARENT 17 13 18 15 13 17 20 19 3 25 4 27 22 29
REMARK Flexibility Score: inf
ROOT
ATOM      1  O   UNL     1      -5.005  61.199  37.391  1.00  0.00    -0.341 OA
ATOM      2  C   UNL     1      -3.121  60.547  36.116  1.00  0.00     0.179 C 
ATOM      3  C   UNL     1      -4.141  61.657  36.333  1.00  0.00     0.179 C 
ATOM      4  C   UNL     1      -2.971  59.999  37.518  1.00  0.00     0.202 C 
ATOM      5  C   UNL     1      -4.423  60.018  37.975  1.00  0.00     0.293 C 
ENDROOT
BRANCH   5   6
ATOM      6  O   UNL     1      -4.513  60.005  39.389  1.00  0.00    -0.253 OA
BRANCH   6   7
ATOM      7  P   UNL     1      -5.861  60.523  40.120  1.00  0.00     0.483 P 
ATOM      8  O   UNL     1      -7.107  60.418  39.290  1.00  0.00    -0.228 OA
BRANCH   7   9
ATOM      9  O   UNL     1      -5.509  62.027  40.600  1.00  0.00    -0.185 OA
BRANCH   9  10
ATOM     10  P   UNL     1      -4.115  62.843  40.593  1.00  0.00     0.478 P 
ATOM     11  O   UNL     1      -3.761  63.467  39.276  1.00  0.00    -0.228 OA
BRANCH  10  12
ATOM     12  O   UNL     1      -3.053  61.760  41.151  1.00  0.00    -0.302 OA
ATOM     13  H   UNL     1      -3.382  61.002  41.680  1.00  0.00     0.223 HD
ENDBRANCH  10  12
BRANCH  10  14
ATOM     14  O   UNL     1      -4.282  63.877  41.824  1.00  0.00    -0.302 OA
ATOM     15  H   UNL     1      -4.896  64.636  41.727  1.00  0.00     0.223 HD
ENDBRANCH  10  14
ENDBRANCH   9  10
ENDBRANCH   7   9
BRANCH   7  16
ATOM     16  O   UNL     1      -5.911  59.693  41.508  1.00  0.00    -0.302 OA
ATOM     17  H   UNL     1      -5.138  59.145  41.761  1.00  0.00     0.223 HD
ENDBRANCH   7  16
ENDBRANCH   6   7
ENDBRANCH   5   6
BRANCH   4  18
ATOM     18  O   UNL     1      -2.193  60.900  38.304  1.00  0.00    -0.385 OA
ATOM     19  H   UNL     1      -1.521  60.394  38.791  1.00  0.00     0.211 HD
ENDBRANCH   4  18
BRANCH   3  20
ATOM     20  C   UNL     1      -4.966  61.964  35.095  1.00  0.00     0.208 C 
BRANCH  20  21
ATOM     21  O   UNL     1      -4.270  61.493  33.953  1.00  0.00    -0.284 OA
BRANCH  21  22
ATOM     22  P   UNL     1      -3.765  62.573  32.859  1.00  0.00     0.469 P 
ATOM     23  O   UNL     1      -4.666  63.758  32.674  1.00  0.00    -0.228 OA
BRANCH  22  24
ATOM     24  O   UNL     1      -3.509  61.686  31.532  1.00  0.00    -0.303 OA
ATOM     25  H   UNL     1      -4.245  61.145  31.173  1.00  0.00     0.223 HD
ENDBRANCH  22  24
BRANCH  22  26
ATOM     26  O   UNL     1      -2.269  62.926  33.364  1.00  0.00    -0.303 OA
ATOM     27  H   UNL     1      -2.064  63.847  33.633  1.00  0.00     0.223 HD
ENDBRANCH  22  26
ENDBRANCH  21  22
ENDBRANCH  20  21
ENDBRANCH   3  20
BRANCH   2  28
ATOM     28  O   UNL     1      -1.914  61.036  35.572  1.00  0.00    -0.387 OA
ATOM     29  H   UNL     1      -2.075  61.245  34.636  1.00  0.00     0.211 HD
ENDBRANCH   2  28
TORSDOF 14
ENDMDL
MODEL 14
REMARK VINA RESULT:    -5.262      2.195      2.932
REMARK INTER + INTRA:         -10.514
REMARK INTER:                  -9.526
REMARK INTRA:                  -0.988
REMARK UNBOUND:                -2.023
REMARK SMILES O=P(O)(O)OC[C@H]1O[C@H](O[P@@](=O)(O)OP(=O)(O)O)[C@H](O)[C@@H]1O
REMARK SMILES IDX 8 1 21 2 7 3 19 4 9 5 10 6 11 7 12 8 14 9 15 10 16 11 17 12
REMARK SMILES IDX 18 14 13 16 20 18 6 20 5 21 2 22 1 23 3 24 4 26 22 28
REMARK H PARENT 17 13 18 15 13 17 20 19 3 25 4 27 22 29
REMARK Flexibility Score: inf
ROOT
ATOM      1  O   UNL     1      -4.114  62.174  37.911  1.00  0.00    -0.341 OA
ATOM      2  C   UNL     1      -5.596  62.345  39.749  1.00  0.00     0.179 C 
ATOM      3  C   UNL     1      -4.144  62.497  39.315  1.00  0.00     0.179 C 
ATOM      4  C   UNL     1      -6.329  62.764  38.493  1.00  0.00     0.202 C 
ATOM      5  C   UNL     1      -5.471  62.084  37.436  1.00  0.00     0.293 C 
ENDROOT
BRANCH   5   6
ATOM      6  O   UNL     1      -5.649  62.688  36.167  1.00  0.00    -0.253 OA
BRANCH   6   7
ATOM      7  P   UNL     1      -6.421  61.889  34.990  1.00  0.00     0.483 P 
ATOM      8  O   UNL     1      -7.197  60.689  35.448  1.00  0.00    -0.228 OA
BRANCH   7   9
ATOM      9  O   UNL     1      -5.270  61.559  33.903  1.00  0.00    -0.185 OA
BRANCH   9  10
ATOM     10  P   UNL     1      -4.246  62.528  33.115  1.00  0.00     0.478 P 
ATOM     11  O   UNL     1      -4.842  63.824  32.651  1.00  0.00    -0.228 OA
BRANCH  10  12
ATOM     12  O   UNL     1      -3.668  61.576  31.944  1.00  0.00    -0.302 OA
ATOM     13  H   UNL     1      -3.220  60.739  32.190  1.00  0.00     0.223 HD
ENDBRANCH  10  12
BRANCH  10  14
ATOM     14  O   UNL     1      -3.001  62.666  34.137  1.00  0.00    -0.302 OA
ATOM     15  H   UNL     1      -2.282  63.298  33.927  1.00  0.00     0.223 HD
ENDBRANCH  10  14
ENDBRANCH   9  10
ENDBRANCH   7   9
BRANCH   7  16
ATOM     16  O   UNL     1      -7.313  63.020  34.254  1.00  0.00    -0.302 OA
ATOM     17  H   UNL     1      -7.944  62.745  33.555  1.00  0.00     0.223 HD
ENDBRANCH   7  16
ENDBRANCH   6   7
ENDBRANCH   5   6
BRANCH   4  18
ATOM     18  O   UNL     1      -6.262  64.181  38.349  1.00  0.00    -0.385 OA
ATOM     19  H   UNL     1      -5.334  64.441  38.220  1.00  0.00     0.211 HD
ENDBRANCH   4  18
BRANCH   3  20
ATOM     20  C   UNL     1      -3.194  61.585  40.070  1.00  0.00     0.208 C 
BRANCH  20  21
ATOM     21  O   UNL     1      -3.876  60.387  40.401  1.00  0.00    -0.284 OA
BRANCH  21  22
ATOM     22  P   UNL     1      -3.930  59.934  41.954  1.00  0.00     0.469 P 
ATOM     23  O   UNL     1      -5.104  59.075  42.324  1.00  0.00    -0.228 OA
BRANCH  22  24
ATOM     24  O   UNL     1      -3.808  61.326  42.765  1.00  0.00    -0.303 OA
ATOM     25  H   UNL     1      -3.606  62.149  42.270  1.00  0.00     0.223 HD
ENDBRANCH  22  24
BRANCH  22  26
ATOM     26  O   UNL     1      -2.484  59.245  42.178  1.00  0.00    -0.303 OA
ATOM     27  H   UNL     1      -2.071  58.755  41.435  1.00  0.00     0.223 HD
ENDBRANCH  22  26
ENDBRANCH  21  22
ENDBRANCH  20  21
ENDBRANCH   3  20
BRANCH   2  28
ATOM     28  O   UNL     1      -5.900  63.146  40.870  1.00  0.00    -0.387 OA
ATOM     29  H   UNL     1      -5.142  63.735  41.026  1.00  0.00     0.211 HD
ENDBRANCH   2  28
TORSDOF 14
ENDMDL
MODEL 15
REMARK VINA RESULT:    -5.244      2.202      3.026
REMARK INTER + INTRA:         -10.486
REMARK INTER:                  -9.178
REMARK INTRA:                  -1.308
REMARK UNBOUND:                -2.023
REMARK SMILES O=P(O)(O)OC[C@H]1O[C@H](O[P@@](=O)(O)OP(=O)(O)O)[C@H](O)[C@@H]1O
REMARK SMILES IDX 8 1 21 2 7 3 19 4 9 5 10 6 11 7 12 8 14 9 15 10 16 11 17 12
REMARK SMILES IDX 18 14 13 16 20 18 6 20 5 21 2 22 1 23 3 24 4 26 22 28
REMARK H PARENT 17 13 18 15 13 17 20 19 3 25 4 27 22 29
REMARK Flexibility Score: inf
ROOT
ATOM      1  O   UNL     1      -3.604  60.904  36.715  1.00  0.00    -0.341 OA
ATOM      2  C   UNL     1      -3.731  61.039  39.074  1.00  0.00     0.179 C 
ATOM      3  C   UNL     1      -2.806  60.733  37.903  1.00  0.00     0.179 C 
ATOM      4  C   UNL     1      -4.630  62.100  38.478  1.00  0.00     0.202 C 
ATOM      5  C   UNL     1      -4.850  61.521  37.088  1.00  0.00     0.293 C 
ENDROOT
BRANCH   5   6
ATOM      6  O   UNL     1      -5.259  62.526  36.176  1.00  0.00    -0.253 OA
BRANCH   6   7
ATOM      7  P   UNL     1      -5.915  62.112  34.755  1.00  0.00     0.483 P 
ATOM      8  O   UNL     1      -5.903  60.639  34.462  1.00  0.00    -0.228 OA
BRANCH   7   9
ATOM      9  O   UNL     1      -5.126  63.011  33.667  1.00  0.00    -0.185 OA
BRANCH   9  10
ATOM     10  P   UNL     1      -3.684  62.806  32.968  1.00  0.00     0.478 P 
ATOM     11  O   UNL     1      -3.698  61.939  31.744  1.00  0.00    -0.228 OA
BRANCH  10  12
ATOM     12  O   UNL     1      -2.761  62.271  34.182  1.00  0.00    -0.302 OA
ATOM     13  H   UNL     1      -2.377  61.370  34.126  1.00  0.00     0.223 HD
ENDBRANCH  10  12
BRANCH  10  14
ATOM     14  O   UNL     1      -3.163  64.319  32.737  1.00  0.00    -0.302 OA
ATOM     15  H   UNL     1      -2.260  64.461  32.383  1.00  0.00     0.223 HD
ENDBRANCH  10  14
ENDBRANCH   9  10
ENDBRANCH   7   9
BRANCH   7  16
ATOM     16  O   UNL     1      -7.390  62.775  34.784  1.00  0.00    -0.302 OA
ATOM     17  H   UNL     1      -7.716  63.170  35.621  1.00  0.00     0.223 HD
ENDBRANCH   7  16
ENDBRANCH   6   7
ENDBRANCH   5   6
BRANCH   4  18
ATOM     18  O   UNL     1      -3.921  63.335  38.393  1.00  0.00    -0.385 OA
ATOM     19  H   UNL     1      -4.563  64.065  38.368  1.00  0.00     0.211 HD
ENDBRANCH   4  18
BRANCH   3  20
ATOM     20  C   UNL     1      -2.237  59.326  37.939  1.00  0.00     0.208 C 
BRANCH  20  21
ATOM     21  O   UNL     1      -2.712  58.671  39.103  1.00  0.00    -0.284 OA
BRANCH  21  22
ATOM     22  P   UNL     1      -1.657  57.837  40.004  1.00  0.00     0.469 P 
ATOM     23  O   UNL     1      -0.220  57.988  39.600  1.00  0.00    -0.228 OA
BRANCH  22  24
ATOM     24  O   UNL     1      -2.230  56.327  39.969  1.00  0.00    -0.303 OA
ATOM     25  H   UNL     1      -1.598  55.577  40.000  1.00  0.00     0.223 HD
ENDBRANCH  22  24
BRANCH  22  26
ATOM     26  O   UNL     1      -1.998  58.330  41.506  1.00  0.00    -0.303 OA
ATOM     27  H   UNL     1      -1.800  57.733  42.258  1.00  0.00     0.223 HD
ENDBRANCH  22  26
ENDBRANCH  21  22
ENDBRANCH  20  21
ENDBRANCH   3  20
BRANCH   2  28
ATOM     28  O   UNL     1      -3.018  61.480  40.209  1.00  0.00    -0.387 OA
ATOM     29  H   UNL     1      -3.509  62.223  40.597  1.00  0.00     0.211 HD
ENDBRANCH   2  28
TORSDOF 14
ENDMDL
MODEL 16
REMARK VINA RESULT:    -5.191      2.495      5.856
REMARK INTER + INTRA:         -10.399
REMARK INTER:                  -8.766
REMARK INTRA:                  -1.633
REMARK UNBOUND:                -2.023
REMARK SMILES O=P(O)(O)OC[C@H]1O[C@H](O[P@@](=O)(O)OP(=O)(O)O)[C@H](O)[C@@H]1O
REMARK SMILES IDX 8 1 21 2 7 3 19 4 9 5 10 6 11 7 12 8 14 9 15 10 16 11 17 12
REMARK SMILES IDX 18 14 13 16 20 18 6 20 5 21 2 22 1 23 3 24 4 26 22 28
REMARK H PARENT 17 13 18 15 13 17 20 19 3 25 4 27 22 29
REMARK Flexibility Score: inf
ROOT
ATOM      1  O   UNL     1      -4.714  62.373  36.800  1.00  0.00    -0.341 OA
ATOM      2  C   UNL     1      -2.992  61.085  35.811  1.00  0.00     0.179 C 
ATOM      3  C   UNL     1      -3.928  62.268  35.597  1.00  0.00     0.179 C 
ATOM      4  C   UNL     1      -2.742  61.167  37.301  1.00  0.00     0.202 C 
ATOM      5  C   UNL     1      -4.143  61.501  37.795  1.00  0.00     0.293 C 
ENDROOT
BRANCH   5   6
ATOM      6  O   UNL     1      -4.103  62.091  39.083  1.00  0.00    -0.253 OA
BRANCH   6   7
ATOM      7  P   UNL     1      -5.437  62.760  39.709  1.00  0.00     0.483 P 
ATOM      8  O   UNL     1      -5.347  63.094  41.170  1.00  0.00    -0.228 OA
BRANCH   7   9
ATOM      9  O   UNL     1      -6.623  61.725  39.338  1.00  0.00    -0.185 OA
BRANCH   9  10
ATOM     10  P   UNL     1      -8.109  61.552  39.947  1.00  0.00     0.478 P 
ATOM     11  O   UNL     1      -9.109  62.554  39.452  1.00  0.00    -0.228 OA
BRANCH  10  12
ATOM     12  O   UNL     1      -7.854  61.563  41.543  1.00  0.00    -0.302 OA
ATOM     13  H   UNL     1      -6.939  61.682  41.877  1.00  0.00     0.223 HD
ENDBRANCH  10  12
BRANCH  10  14
ATOM     14  O   UNL     1      -8.464  60.007  39.632  1.00  0.00    -0.302 OA
ATOM     15  H   UNL     1      -9.378  59.776  39.363  1.00  0.00     0.223 HD
ENDBRANCH  10  14
ENDBRANCH   9  10
ENDBRANCH   7   9
BRANCH   7  16
ATOM     16  O   UNL     1      -5.739  64.028  38.752  1.00  0.00    -0.302 OA
ATOM     17  H   UNL     1      -4.984  64.545  38.397  1.00  0.00     0.223 HD
ENDBRANCH   7  16
ENDBRANCH   6   7
ENDBRANCH   5   6
BRANCH   4  18
ATOM     18  O   UNL     1      -1.849  62.243  37.580  1.00  0.00    -0.385 OA
ATOM     19  H   UNL     1      -1.075  62.169  36.996  1.00  0.00     0.211 HD
ENDBRANCH   4  18
BRANCH   3  20
ATOM     20  C   UNL     1      -4.847  62.096  34.400  1.00  0.00     0.208 C 
BRANCH  20  21
ATOM     21  O   UNL     1      -6.025  61.429  34.819  1.00  0.00    -0.284 OA
BRANCH  21  22
ATOM     22  P   UNL     1      -7.397  62.282  34.929  1.00  0.00     0.469 P 
ATOM     23  O   UNL     1      -8.640  61.536  34.541  1.00  0.00    -0.228 OA
BRANCH  22  24
ATOM     24  O   UNL     1      -7.091  63.613  34.065  1.00  0.00    -0.303 OA
ATOM     25  H   UNL     1      -6.291  63.639  33.498  1.00  0.00     0.223 HD
ENDBRANCH  22  24
BRANCH  22  26
ATOM     26  O   UNL     1      -7.369  62.814  36.456  1.00  0.00    -0.303 OA
ATOM     27  H   UNL     1      -7.199  63.765  36.624  1.00  0.00     0.223 HD
ENDBRANCH  22  26
ENDBRANCH  21  22
ENDBRANCH  20  21
ENDBRANCH   3  20
BRANCH   2  28
ATOM     28  O   UNL     1      -1.817  61.195  35.038  1.00  0.00    -0.387 OA
ATOM     29  H   UNL     1      -2.041  61.680  34.226  1.00  0.00     0.211 HD
ENDBRANCH   2  28
TORSDOF 14
ENDMDL
MODEL 17
REMARK VINA RESULT:    -5.122      1.298      2.911
REMARK INTER + INTRA:         -10.289
REMARK INTER:                  -8.262
REMARK INTRA:                  -2.027
REMARK UNBOUND:                -2.023
REMARK SMILES O=P(O)(O)OC[C@H]1O[C@H](O[P@@](=O)(O)OP(=O)(O)O)[C@H](O)[C@@H]1O
REMARK SMILES IDX 8 1 21 2 7 3 19 4 9 5 10 6 11 7 12 8 14 9 15 10 16 11 17 12
REMARK SMILES IDX 18 14 13 16 20 18 6 20 5 21 2 22 1 23 3 24 4 26 22 28
REMARK H PARENT 17 13 18 15 13 17 20 19 3 25 4 27 22 29
REMARK Flexibility Score: inf
ROOT
ATOM      1  O   UNL     1      -4.590  62.550  36.741  1.00  0.00    -0.341 OA
ATOM      2  C   UNL     1      -4.660  62.691  39.103  1.00  0.00     0.179 C 
ATOM      3  C   UNL     1      -3.813  62.990  37.872  1.00  0.00     0.179 C 
ATOM      4  C   UNL     1      -6.058  62.899  38.563  1.00  0.00     0.202 C 
ATOM      5  C   UNL     1      -5.922  62.244  37.195  1.00  0.00     0.293 C 
ENDROOT
BRANCH   5   6
ATOM      6  O   UNL     1      -6.924  62.706  36.307  1.00  0.00    -0.253 OA
BRANCH   6   7
ATOM      7  P   UNL     1      -6.812  62.389  34.724  1.00  0.00     0.483 P 
ATOM      8  O   UNL     1      -6.160  63.470  33.910  1.00  0.00    -0.228 OA
BRANCH   7   9
ATOM      9  O   UNL     1      -8.324  62.040  34.271  1.00  0.00    -0.185 OA
BRANCH   9  10
ATOM     10  P   UNL     1      -9.246  60.746  34.563  1.00  0.00     0.478 P 
ATOM     11  O   UNL     1     -10.720  60.978  34.404  1.00  0.00    -0.228 OA
BRANCH  10  12
ATOM     12  O   UNL     1      -8.775  60.285  36.038  1.00  0.00    -0.302 OA
ATOM     13  H   UNL     1      -7.824  60.342  36.272  1.00  0.00     0.223 HD
ENDBRANCH  10  12
BRANCH  10  14
ATOM     14  O   UNL     1      -8.617  59.614  33.596  1.00  0.00    -0.302 OA
ATOM     15  H   UNL     1      -8.467  59.827  32.650  1.00  0.00     0.223 HD
ENDBRANCH  10  14
ENDBRANCH   9  10
ENDBRANCH   7   9
BRANCH   7  16
ATOM     16  O   UNL     1      -6.063  60.957  34.652  1.00  0.00    -0.302 OA
ATOM     17  H   UNL     1      -6.141  60.342  35.413  1.00  0.00     0.223 HD
ENDBRANCH   7  16
ENDBRANCH   6   7
ENDBRANCH   5   6
BRANCH   4  18
ATOM     18  O   UNL     1      -6.314  64.295  38.420  1.00  0.00    -0.385 OA
ATOM     19  H   UNL     1      -5.521  64.790  38.688  1.00  0.00     0.211 HD
ENDBRANCH   4  18
BRANCH   3  20
ATOM     20  C   UNL     1      -2.472  62.278  37.880  1.00  0.00     0.208 C 
BRANCH  20  21
ATOM     21  O   UNL     1      -2.693  60.889  38.060  1.00  0.00    -0.284 OA
BRANCH  21  22
ATOM     22  P   UNL     1      -2.361  59.889  36.832  1.00  0.00     0.469 P 
ATOM     23  O   UNL     1      -1.591  58.657  37.206  1.00  0.00    -0.228 OA
BRANCH  22  24
ATOM     24  O   UNL     1      -1.647  60.845  35.741  1.00  0.00    -0.303 OA
ATOM     25  H   UNL     1      -1.536  60.517  34.822  1.00  0.00     0.223 HD
ENDBRANCH  22  24
BRANCH  22  26
ATOM     26  O   UNL     1      -3.819  59.613  36.188  1.00  0.00    -0.303 OA
ATOM     27  H   UNL     1      -4.484  59.121  36.714  1.00  0.00     0.223 HD
ENDBRANCH  22  26
ENDBRANCH  21  22
ENDBRANCH  20  21
ENDBRANCH   3  20
BRANCH   2  28
ATOM     28  O   UNL     1      -4.343  63.543  40.182  1.00  0.00    -0.387 OA
ATOM     29  H   UNL     1      -4.134  62.983  40.949  1.00  0.00     0.211 HD
ENDBRANCH   2  28
TORSDOF 14
ENDMDL
MODEL 18
REMARK VINA RESULT:    -5.092      2.846      6.413
REMARK INTER + INTRA:         -10.241
REMARK INTER:                  -8.596
REMARK INTRA:                  -1.644
REMARK UNBOUND:                -2.023
REMARK SMILES O=P(O)(O)OC[C@H]1O[C@H](O[P@@](=O)(O)OP(=O)(O)O)[C@H](O)[C@@H]1O
REMARK SMILES IDX 8 1 21 2 7 3 19 4 9 5 10 6 11 7 12 8 14 9 15 10 16 11 17 12
REMARK SMILES IDX 18 14 13 16 20 18 6 20 5 21 2 22 1 23 3 24 4 26 22 28
REMARK H PARENT 17 13 18 15 13 17 20 19 3 25 4 27 22 29
REMARK Flexibility Score: inf
ROOT
ATOM      1  O   UNL     1      -4.108  60.334  36.979  1.00  0.00    -0.341 OA
ATOM      2  C   UNL     1      -2.651  62.189  37.178  1.00  0.00     0.179 C 
ATOM      3  C   UNL     1      -3.870  61.650  36.441  1.00  0.00     0.179 C 
ATOM      4  C   UNL     1      -2.821  61.557  38.542  1.00  0.00     0.202 C 
ATOM      5  C   UNL     1      -3.275  60.160  38.141  1.00  0.00     0.293 C 
ENDROOT
BRANCH   5   6
ATOM      6  O   UNL     1      -3.950  59.517  39.208  1.00  0.00    -0.253 OA
BRANCH   6   7
ATOM      7  P   UNL     1      -3.157  58.471  40.155  1.00  0.00     0.483 P 
ATOM      8  O   UNL     1      -3.305  57.030  39.762  1.00  0.00    -0.228 OA
BRANCH   7   9
ATOM      9  O   UNL     1      -3.673  58.806  41.650  1.00  0.00    -0.185 OA
BRANCH   9  10
ATOM     10  P   UNL     1      -4.056  60.211  42.350  1.00  0.00     0.478 P 
ATOM     11  O   UNL     1      -4.310  60.127  43.826  1.00  0.00    -0.228 OA
BRANCH  10  12
ATOM     12  O   UNL     1      -5.304  60.733  41.464  1.00  0.00    -0.302 OA
ATOM     13  H   UNL     1      -5.166  61.482  40.846  1.00  0.00     0.223 HD
ENDBRANCH  10  12
BRANCH  10  14
ATOM     14  O   UNL     1      -2.847  61.189  41.910  1.00  0.00    -0.302 OA
ATOM     15  H   UNL     1      -2.778  62.075  42.325  1.00  0.00     0.223 HD
ENDBRANCH  10  14
ENDBRANCH   9  10
ENDBRANCH   7   9
BRANCH   7  16
ATOM     16  O   UNL     1      -1.632  59.009  40.159  1.00  0.00    -0.302 OA
ATOM     17  H   UNL     1      -1.329  59.583  39.423  1.00  0.00     0.223 HD
ENDBRANCH   7  16
ENDBRANCH   6   7
ENDBRANCH   5   6
BRANCH   4  18
ATOM     18  O   UNL     1      -3.858  62.229  39.255  1.00  0.00    -0.385 OA
ATOM     19  H   UNL     1      -3.674  63.183  39.254  1.00  0.00     0.211 HD
ENDBRANCH   4  18
BRANCH   3  20
ATOM     20  C   UNL     1      -3.671  61.560  34.938  1.00  0.00     0.208 C 
BRANCH  20  21
ATOM     21  O   UNL     1      -3.190  62.807  34.465  1.00  0.00    -0.284 OA
BRANCH  21  22
ATOM     22  P   UNL     1      -3.326  63.137  32.886  1.00  0.00     0.469 P 
ATOM     23  O   UNL     1      -2.283  64.068  32.341  1.00  0.00    -0.228 OA
BRANCH  22  24
ATOM     24  O   UNL     1      -4.853  63.641  32.729  1.00  0.00    -0.303 OA
ATOM     25  H   UNL     1      -5.564  63.161  33.206  1.00  0.00     0.223 HD
ENDBRANCH  22  24
BRANCH  22  26
ATOM     26  O   UNL     1      -3.347  61.667  32.212  1.00  0.00    -0.303 OA
ATOM     27  H   UNL     1      -4.201  61.304  31.893  1.00  0.00     0.223 HD
ENDBRANCH  22  26
ENDBRANCH  21  22
ENDBRANCH  20  21
ENDBRANCH   3  20
BRANCH   2  28
ATOM     28  O   UNL     1      -2.634  63.599  37.210  1.00  0.00    -0.387 OA
ATOM     29  H   UNL     1      -2.464  63.872  38.128  1.00  0.00     0.211 HD
ENDBRANCH   2  28
TORSDOF 14
ENDMDL
MODEL 19
REMARK VINA RESULT:    -5.054      2.663      5.229
REMARK INTER + INTRA:         -10.178
REMARK INTER:                  -9.035
REMARK INTRA:                  -1.143
REMARK UNBOUND:                -2.023
REMARK SMILES O=P(O)(O)OC[C@H]1O[C@H](O[P@@](=O)(O)OP(=O)(O)O)[C@H](O)[C@@H]1O
REMARK SMILES IDX 8 1 21 2 7 3 19 4 9 5 10 6 11 7 12 8 14 9 15 10 16 11 17 12
REMARK SMILES IDX 18 14 13 16 20 18 6 20 5 21 2 22 1 23 3 24 4 26 22 28
REMARK H PARENT 17 13 18 15 13 17 20 19 3 25 4 27 22 29
REMARK Flexibility Score: inf
ROOT
ATOM      1  O   UNL     1      -5.182  61.639  36.945  1.00  0.00    -0.341 OA
ATOM      2  C   UNL     1      -2.929  61.826  37.647  1.00  0.00     0.179 C 
ATOM      3  C   UNL     1      -3.887  62.077  36.489  1.00  0.00     0.179 C 
ATOM      4  C   UNL     1      -3.830  62.065  38.838  1.00  0.00     0.202 C 
ATOM      5  C   UNL     1      -5.103  61.382  38.360  1.00  0.00     0.293 C 
ENDROOT
BRANCH   5   6
ATOM      6  O   UNL     1      -6.235  61.857  39.068  1.00  0.00    -0.253 OA
BRANCH   6   7
ATOM      7  P   UNL     1      -7.330  62.783  38.317  1.00  0.00     0.483 P 
ATOM      8  O   UNL     1      -6.893  64.197  38.067  1.00  0.00    -0.228 OA
BRANCH   7   9
ATOM      9  O   UNL     1      -8.662  62.651  39.224  1.00  0.00    -0.185 OA
BRANCH   9  10
ATOM     10  P   UNL     1      -9.348  61.365  39.921  1.00  0.00     0.478 P 
ATOM     11  O   UNL     1      -9.002  61.178  41.368  1.00  0.00    -0.228 OA
BRANCH  10  12
ATOM     12  O   UNL     1      -8.920  60.149  38.946  1.00  0.00    -0.302 OA
ATOM     13  H   UNL     1      -9.595  59.482  38.694  1.00  0.00     0.223 HD
ENDBRANCH  10  12
BRANCH  10  14
ATOM     14  O   UNL     1     -10.921  61.565  39.606  1.00  0.00    -0.302 OA
ATOM     15  H   UNL     1     -11.207  62.356  39.103  1.00  0.00     0.223 HD
ENDBRANCH  10  14
ENDBRANCH   9  10
ENDBRANCH   7   9
BRANCH   7  16
ATOM     16  O   UNL     1      -7.708  61.955  36.980  1.00  0.00    -0.302 OA
ATOM     17  H   UNL     1      -8.604  62.061  36.594  1.00  0.00     0.223 HD
ENDBRANCH   7  16
ENDBRANCH   6   7
ENDBRANCH   5   6
BRANCH   4  18
ATOM     18  O   UNL     1      -4.050  63.465  38.999  1.00  0.00    -0.385 OA
ATOM     19  H   UNL     1      -4.858  63.599  39.523  1.00  0.00     0.211 HD
ENDBRANCH   4  18
BRANCH   3  20
ATOM     20  C   UNL     1      -3.509  61.326  35.225  1.00  0.00     0.208 C 
BRANCH  20  21
ATOM     21  O   UNL     1      -4.377  61.727  34.177  1.00  0.00    -0.284 OA
BRANCH  21  22
ATOM     22  P   UNL     1      -3.768  62.614  32.969  1.00  0.00     0.469 P 
ATOM     23  O   UNL     1      -4.523  63.875  32.665  1.00  0.00    -0.228 OA
BRANCH  22  24
ATOM     24  O   UNL     1      -3.650  61.567  31.744  1.00  0.00    -0.303 OA
ATOM     25  H   UNL     1      -2.801  61.497  31.257  1.00  0.00     0.223 HD
ENDBRANCH  22  24
BRANCH  22  26
ATOM     26  O   UNL     1      -2.231  62.833  33.421  1.00  0.00    -0.303 OA
ATOM     27  H   UNL     1      -2.011  63.589  34.006  1.00  0.00     0.223 HD
ENDBRANCH  22  26
ENDBRANCH  21  22
ENDBRANCH  20  21
ENDBRANCH   3  20
BRANCH   2  28
ATOM     28  O   UNL     1      -1.812  62.687  37.605  1.00  0.00    -0.387 OA
ATOM     29  H   UNL     1      -1.872  63.287  38.368  1.00  0.00     0.211 HD
ENDBRANCH   2  28
TORSDOF 14
ENDMDL
MODEL 20
REMARK VINA RESULT:    -5.020      2.256      3.896
REMARK INTER + INTRA:         -10.124
REMARK INTER:                  -7.952
REMARK INTRA:                  -2.173
REMARK UNBOUND:                -2.023
REMARK SMILES O=P(O)(O)OC[C@H]1O[C@H](O[P@@](=O)(O)OP(=O)(O)O)[C@H](O)[C@@H]1O
REMARK SMILES IDX 8 1 21 2 7 3 19 4 9 5 10 6 11 7 12 8 14 9 15 10 16 11 17 12
REMARK SMILES IDX 18 14 13 16 20 18 6 20 5 21 2 22 1 23 3 24 4 26 22 28
REMARK H PARENT 17 13 18 15 13 17 20 19 3 25 4 27 22 29
REMARK Flexibility Score: inf
ROOT
ATOM      1  O   UNL     1      -4.193  62.328  38.655  1.00  0.00    -0.341 OA
ATOM      2  C   UNL     1      -6.005  62.589  40.156  1.00  0.00     0.179 C 
ATOM      3  C   UNL     1      -4.508  62.807  39.977  1.00  0.00     0.179 C 
ATOM      4  C   UNL     1      -6.509  62.801  38.745  1.00  0.00     0.202 C 
ATOM      5  C   UNL     1      -5.427  62.075  37.957  1.00  0.00     0.293 C 
ENDROOT
BRANCH   5   6
ATOM      6  O   UNL     1      -5.395  62.514  36.611  1.00  0.00    -0.253 OA
BRANCH   6   7
ATOM      7  P   UNL     1      -4.220  62.007  35.620  1.00  0.00     0.483 P 
ATOM      8  O   UNL     1      -4.501  62.199  34.158  1.00  0.00    -0.228 OA
BRANCH   7   9
ATOM      9  O   UNL     1      -3.964  60.469  36.049  1.00  0.00    -0.185 OA
BRANCH   9  10
ATOM     10  P   UNL     1      -2.622  59.713  36.536  1.00  0.00     0.478 P 
ATOM     11  O   UNL     1      -2.687  58.216  36.469  1.00  0.00    -0.228 OA
BRANCH  10  12
ATOM     12  O   UNL     1      -2.368  60.328  38.008  1.00  0.00    -0.302 OA
ATOM     13  H   UNL     1      -1.666  59.937  38.572  1.00  0.00     0.223 HD
ENDBRANCH  10  12
BRANCH  10  14
ATOM     14  O   UNL     1      -1.464  60.395  35.637  1.00  0.00    -0.302 OA
ATOM     15  H   UNL     1      -1.428  61.373  35.571  1.00  0.00     0.223 HD
ENDBRANCH  10  14
ENDBRANCH   9  10
ENDBRANCH   7   9
BRANCH   7  16
ATOM     16  O   UNL     1      -2.892  62.765  36.150  1.00  0.00    -0.302 OA
ATOM     17  H   UNL     1      -2.238  63.089  35.494  1.00  0.00     0.223 HD
ENDBRANCH   7  16
ENDBRANCH   6   7
ENDBRANCH   5   6
BRANCH   4  18
ATOM     18  O   UNL     1      -6.497  64.193  38.436  1.00  0.00    -0.385 OA
ATOM     19  H   UNL     1      -7.033  64.667  39.094  1.00  0.00     0.211 HD
ENDBRANCH   4  18
BRANCH   3  20
ATOM     20  C   UNL     1      -3.667  62.067  41.003  1.00  0.00     0.208 C 
BRANCH  20  21
ATOM     21  O   UNL     1      -4.479  61.099  41.646  1.00  0.00    -0.284 OA
BRANCH  21  22
ATOM     22  P   UNL     1      -4.187  59.533  41.359  1.00  0.00     0.469 P 
ATOM     23  O   UNL     1      -4.263  59.128  39.916  1.00  0.00    -0.228 OA
BRANCH  22  24
ATOM     24  O   UNL     1      -5.209  58.763  42.347  1.00  0.00    -0.303 OA
ATOM     25  H   UNL     1      -6.028  59.221  42.634  1.00  0.00     0.223 HD
ENDBRANCH  22  24
BRANCH  22  26
ATOM     26  O   UNL     1      -2.747  59.301  42.057  1.00  0.00    -0.303 OA
ATOM     27  H   UNL     1      -2.417  58.385  42.171  1.00  0.00     0.223 HD
ENDBRANCH  22  26
ENDBRANCH  21  22
ENDBRANCH  20  21
ENDBRANCH   3  20
BRANCH   2  28
ATOM     28  O   UNL     1      -6.562  63.486  41.092  1.00  0.00    -0.387 OA
ATOM     29  H   UNL     1      -7.065  64.155  40.597  1.00  0.00     0.211 HD
ENDBRANCH   2  28
TORSDOF 14
ENDMDL
