MODEL 1
REMARK VINA RESULT:    -8.567      0.000      0.000
REMARK INTER + INTRA:         -15.893
REMARK INTER:                 -13.826
REMARK INTRA:                  -2.066
REMARK UNBOUND:                -2.066
REMARK SMILES O=P(O)(O)OC[C@H]1O[C@H](O[P@@](=O)(O)OP(=O)(O)O)[C@H](O)[C@@H]1O
REMARK SMILES IDX 8 1 21 2 7 3 19 4 9 5 10 6 11 7 12 8 14 9 15 10 16 11 17 12
REMARK SMILES IDX 18 14 13 16 20 18 6 20 5 21 2 22 1 23 3 24 4 26 22 28
REMARK H PARENT 17 13 18 15 13 17 20 19 3 25 4 27 22 29
REMARK Flexibility Score: inf
ROOT
ATOM      1  O   UNL     1      -3.601  60.818  38.985  1.00  0.00    -0.341 OA
ATOM      2  C   UNL     1      -2.150  61.234  37.162  1.00  0.00     0.179 C 
ATOM      3  C   UNL     1      -3.242  60.310  37.685  1.00  0.00     0.179 C 
ATOM      4  C   UNL     1      -2.563  62.559  37.765  1.00  0.00     0.202 C 
ATOM      5  C   UNL     1      -2.980  62.106  39.158  1.00  0.00     0.293 C 
ENDROOT
BRANCH   5   6
ATOM      6  O   UNL     1      -3.842  63.053  39.765  1.00  0.00    -0.253 OA
BRANCH   6   7
ATOM      7  P   UNL     1      -4.681  62.652  41.089  1.00  0.00     0.483 P 
ATOM      8  O   UNL     1      -4.294  61.339  41.707  1.00  0.00    -0.228 OA
BRANCH   7   9
ATOM      9  O   UNL     1      -6.229  62.737  40.630  1.00  0.00    -0.185 OA
BRANCH   9  10
ATOM     10  P   UNL     1      -6.892  62.945  39.171  1.00  0.00     0.478 P 
ATOM     11  O   UNL     1      -8.389  63.028  39.170  1.00  0.00    -0.228 OA
BRANCH  10  12
ATOM     12  O   UNL     1      -6.268  61.729  38.308  1.00  0.00    -0.302 OA
ATOM     13  H   UNL     1      -6.578  60.814  38.483  1.00  0.00     0.223 HD
ENDBRANCH  10  12
BRANCH  10  14
ATOM     14  O   UNL     1      -6.126  64.247  38.595  1.00  0.00    -0.302 OA
ATOM     15  H   UNL     1      -5.146  64.272  38.622  1.00  0.00     0.223 HD
ENDBRANCH  10  14
ENDBRANCH   9  10
ENDBRANCH   7   9
BRANCH   7  16
ATOM     16  O   UNL     1      -4.516  63.927  42.072  1.00  0.00    -0.302 OA
ATOM     17  H   UNL     1      -5.208  64.099  42.746  1.00  0.00     0.223 HD
ENDBRANCH   7  16
ENDBRANCH   6   7
ENDBRANCH   5   6
BRANCH   4  18
ATOM     18  O   UNL     1      -3.687  63.078  37.056  1.00  0.00    -0.385 OA
ATOM     19  H   UNL     1      -3.867  62.507  36.290  1.00  0.00     0.211 HD
ENDBRANCH   4  18
BRANCH   3  20
ATOM     20  C   UNL     1      -2.796  58.864  37.807  1.00  0.00     0.208 C 
BRANCH  20  21
ATOM     21  O   UNL     1      -1.661  58.805  38.654  1.00  0.00    -0.284 OA
BRANCH  21  22
ATOM     22  P   UNL     1      -1.812  58.092  40.099  1.00  0.00     0.469 P 
ATOM     23  O   UNL     1      -2.765  56.933  40.138  1.00  0.00    -0.228 OA
BRANCH  22  24
ATOM     24  O   UNL     1      -2.168  59.314  41.095  1.00  0.00    -0.303 OA
ATOM     25  H   UNL     1      -1.601  60.114  41.088  1.00  0.00     0.223 HD
ENDBRANCH  22  24
BRANCH  22  26
ATOM     26  O   UNL     1      -0.284  57.730  40.485  1.00  0.00    -0.303 OA
ATOM     27  H   UNL     1       0.368  57.592  39.764  1.00  0.00     0.223 HD
ENDBRANCH  22  26
ENDBRANCH  21  22
ENDBRANCH  20  21
ENDBRANCH   3  20
BRANCH   2  28
ATOM     28  O   UNL     1      -2.101  61.250  35.752  1.00  0.00    -0.387 OA
ATOM     29  H   UNL     1      -2.931  61.642  35.432  1.00  0.00     0.211 HD
ENDBRANCH   2  28
TORSDOF 14
REMARK SMILES O=c1[nH]cc(F)c(=O)[nH]1
REMARK SMILES IDX 6 1 8 2 1 3 9 4 3 5 7 6 2 7 5 8 4 9
REMARK H PARENT 9 10 3 11
REMARK Flexibility Score: inf
ROOT
ATOM      1  F   UNL     1      -5.634  59.671  34.064  1.00  0.00    -0.199 F 
ATOM      2  O   UNL     1      -5.985  61.941  35.524  1.00  0.00    -0.266 OA
ATOM      3  O   UNL     1      -3.036  64.230  32.783  1.00  0.00    -0.248 OA
ATOM      4  N   UNL     1      -4.510  63.110  34.167  1.00  0.00    -0.272 N 
ATOM      5  N   UNL     1      -3.484  62.008  32.366  1.00  0.00    -0.311 N 
ATOM      6  C   UNL     1      -5.220  61.982  34.567  1.00  0.00     0.289 A 
ATOM      7  C   UNL     1      -3.631  63.192  33.081  1.00  0.00     0.325 A 
ATOM      8  C   UNL     1      -4.975  60.794  33.726  1.00  0.00     0.204 A 
ATOM      9  C   UNL     1      -4.141  60.853  32.690  1.00  0.00     0.132 A 
ATOM     10  H   UNL     1      -4.644  63.956  34.714  1.00  0.00     0.175 HD
ATOM     11  H   UNL     1      -2.861  61.991  31.565  1.00  0.00     0.171 HD
ENDROOT
TORSDOF 0
ENDMDL
MODEL 2
REMARK VINA RESULT:    -8.470      2.803      5.189
REMARK INTER + INTRA:         -15.736
REMARK INTER:                 -15.024
REMARK INTRA:                  -0.713
REMARK UNBOUND:                -2.066
REMARK SMILES O=P(O)(O)OC[C@H]1O[C@H](O[P@@](=O)(O)OP(=O)(O)O)[C@H](O)[C@@H]1O
REMARK SMILES IDX 8 1 21 2 7 3 19 4 9 5 10 6 11 7 12 8 14 9 15 10 16 11 17 12
REMARK SMILES IDX 18 14 13 16 20 18 6 20 5 21 2 22 1 23 3 24 4 26 22 28
REMARK H PARENT 17 13 18 15 13 17 20 19 3 25 4 27 22 29
REMARK Flexibility Score: inf
ROOT
ATOM      1  O   UNL     1      -5.414  61.136  38.202  1.00  0.00    -0.341 OA
ATOM      2  C   UNL     1      -6.663  62.431  39.740  1.00  0.00     0.179 C 
ATOM      3  C   UNL     1      -5.472  61.492  39.597  1.00  0.00     0.179 C 
ATOM      4  C   UNL     1      -6.641  63.147  38.407  1.00  0.00     0.202 C 
ATOM      5  C   UNL     1      -6.324  61.984  37.478  1.00  0.00     0.293 C 
ENDROOT
BRANCH   5   6
ATOM      6  O   UNL     1      -5.787  62.444  36.250  1.00  0.00    -0.253 OA
BRANCH   6   7
ATOM      7  P   UNL     1      -6.425  61.945  34.849  1.00  0.00     0.483 P 
ATOM      8  O   UNL     1      -7.426  60.832  34.973  1.00  0.00    -0.228 OA
BRANCH   7   9
ATOM      9  O   UNL     1      -5.147  61.585  33.926  1.00  0.00    -0.185 OA
BRANCH   9  10
ATOM     10  P   UNL     1      -4.149  62.534  33.081  1.00  0.00     0.478 P 
ATOM     11  O   UNL     1      -4.728  63.860  32.687  1.00  0.00    -0.228 OA
BRANCH  10  12
ATOM     12  O   UNL     1      -3.695  61.586  31.853  1.00  0.00    -0.302 OA
ATOM     13  H   UNL     1      -4.050  60.673  31.802  1.00  0.00     0.223 HD
ENDBRANCH  10  12
BRANCH  10  14
ATOM     14  O   UNL     1      -2.827  62.605  34.009  1.00  0.00    -0.302 OA
ATOM     15  H   UNL     1      -2.194  61.856  33.993  1.00  0.00     0.223 HD
ENDBRANCH  10  14
ENDBRANCH   9  10
ENDBRANCH   7   9
BRANCH   7  16
ATOM     16  O   UNL     1      -7.006  63.292  34.169  1.00  0.00    -0.302 OA
ATOM     17  H   UNL     1      -7.884  63.262  33.731  1.00  0.00     0.223 HD
ENDBRANCH   7  16
ENDBRANCH   6   7
ENDBRANCH   5   6
BRANCH   4  18
ATOM     18  O   UNL     1      -5.578  64.097  38.391  1.00  0.00    -0.385 OA
ATOM     19  H   UNL     1      -5.628  64.614  37.569  1.00  0.00     0.211 HD
ENDBRANCH   4  18
BRANCH   3  20
ATOM     20  C   UNL     1      -5.595  60.235  40.441  1.00  0.00     0.208 C 
BRANCH  20  21
ATOM     21  O   UNL     1      -4.327  59.605  40.510  1.00  0.00    -0.284 OA
BRANCH  21  22
ATOM     22  P   UNL     1      -3.354  59.963  41.753  1.00  0.00     0.469 P 
ATOM     23  O   UNL     1      -4.047  60.134  43.073  1.00  0.00    -0.228 OA
BRANCH  22  24
ATOM     24  O   UNL     1      -2.527  61.252  41.234  1.00  0.00    -0.303 OA
ATOM     25  H   UNL     1      -1.556  61.177  41.115  1.00  0.00     0.223 HD
ENDBRANCH  22  24
BRANCH  22  26
ATOM     26  O   UNL     1      -2.258  58.775  41.707  1.00  0.00    -0.303 OA
ATOM     27  H   UNL     1      -2.564  57.844  41.760  1.00  0.00     0.223 HD
ENDBRANCH  22  26
ENDBRANCH  21  22
ENDBRANCH  20  21
ENDBRANCH   3  20
BRANCH   2  28
ATOM     28  O   UNL     1      -6.524  63.297  40.845  1.00  0.00    -0.387 OA
ATOM     29  H   UNL     1      -5.671  63.755  40.757  1.00  0.00     0.211 HD
ENDBRANCH   2  28
TORSDOF 14
REMARK SMILES O=c1[nH]cc(F)c(=O)[nH]1
REMARK SMILES IDX 6 1 8 2 1 3 9 4 3 5 7 6 2 7 5 8 4 9
REMARK H PARENT 9 10 3 11
REMARK Flexibility Score: inf
ROOT
ATOM      1  F   UNL     1      -2.720  57.081  36.769  1.00  0.00    -0.199 F 
ATOM      2  O   UNL     1      -1.645  58.256  38.977  1.00  0.00    -0.266 OA
ATOM      3  O   UNL     1      -2.576  62.457  37.266  1.00  0.00    -0.248 OA
ATOM      4  N   UNL     1      -2.099  60.372  38.141  1.00  0.00    -0.272 N 
ATOM      5  N   UNL     1      -3.143  60.584  36.050  1.00  0.00    -0.311 N 
ATOM      6  C   UNL     1      -2.095  58.982  38.097  1.00  0.00     0.289 A 
ATOM      7  C   UNL     1      -2.605  61.230  37.157  1.00  0.00     0.325 A 
ATOM      8  C   UNL     1      -2.694  58.422  36.870  1.00  0.00     0.204 A 
ATOM      9  C   UNL     1      -3.180  59.222  35.922  1.00  0.00     0.132 A 
ATOM     10  H   UNL     1      -1.697  60.808  38.967  1.00  0.00     0.175 HD
ATOM     11  H   UNL     1      -3.529  61.142  35.294  1.00  0.00     0.171 HD
ENDROOT
TORSDOF 0
ENDMDL
MODEL 3
REMARK VINA RESULT:    -8.467      2.609      4.879
REMARK INTER + INTRA:         -15.730
REMARK INTER:                 -14.150
REMARK INTRA:                  -1.580
REMARK UNBOUND:                -2.066
REMARK SMILES O=P(O)(O)OC[C@H]1O[C@H](O[P@@](=O)(O)OP(=O)(O)O)[C@H](O)[C@@H]1O
REMARK SMILES IDX 8 1 21 2 7 3 19 4 9 5 10 6 11 7 12 8 14 9 15 10 16 11 17 12
REMARK SMILES IDX 18 14 13 16 20 18 6 20 5 21 2 22 1 23 3 24 4 26 22 28
REMARK H PARENT 17 13 18 15 13 17 20 19 3 25 4 27 22 29
REMARK Flexibility Score: inf
ROOT
ATOM      1  O   UNL     1      -4.465  60.927  37.469  1.00  0.00    -0.341 OA
ATOM      2  C   UNL     1      -2.818  62.585  37.092  1.00  0.00     0.179 C 
ATOM      3  C   UNL     1      -4.010  61.864  36.474  1.00  0.00     0.179 C 
ATOM      4  C   UNL     1      -3.210  62.614  38.553  1.00  0.00     0.202 C 
ATOM      5  C   UNL     1      -3.789  61.215  38.708  1.00  0.00     0.293 C 
ENDROOT
BRANCH   5   6
ATOM      6  O   UNL     1      -4.648  61.139  39.832  1.00  0.00    -0.253 OA
BRANCH   6   7
ATOM      7  P   UNL     1      -4.075  60.626  41.256  1.00  0.00     0.483 P 
ATOM      8  O   UNL     1      -4.148  59.141  41.466  1.00  0.00    -0.228 OA
BRANCH   7   9
ATOM      9  O   UNL     1      -4.888  61.491  42.355  1.00  0.00    -0.185 OA
BRANCH   9  10
ATOM     10  P   UNL     1      -5.411  63.019  42.326  1.00  0.00     0.478 P 
ATOM     11  O   UNL     1      -5.965  63.517  43.628  1.00  0.00    -0.228 OA
BRANCH  10  12
ATOM     12  O   UNL     1      -6.448  63.029  41.086  1.00  0.00    -0.302 OA
ATOM     13  H   UNL     1      -6.543  63.847  40.553  1.00  0.00     0.223 HD
ENDBRANCH  10  12
BRANCH  10  14
ATOM     14  O   UNL     1      -4.138  63.838  41.759  1.00  0.00    -0.302 OA
ATOM     15  H   UNL     1      -4.292  64.628  41.198  1.00  0.00     0.223 HD
ENDBRANCH  10  14
ENDBRANCH   9  10
ENDBRANCH   7   9
BRANCH   7  16
ATOM     16  O   UNL     1      -2.580  61.239  41.333  1.00  0.00    -0.302 OA
ATOM     17  H   UNL     1      -2.400  61.971  41.961  1.00  0.00     0.223 HD
ENDBRANCH   7  16
ENDBRANCH   6   7
ENDBRANCH   5   6
BRANCH   4  18
ATOM     18  O   UNL     1      -4.226  63.595  38.757  1.00  0.00    -0.385 OA
ATOM     19  H   UNL     1      -3.814  64.475  38.784  1.00  0.00     0.211 HD
ENDBRANCH   4  18
BRANCH   3  20
ATOM     20  C   UNL     1      -3.664  61.124  35.194  1.00  0.00     0.208 C 
BRANCH  20  21
ATOM     21  O   UNL     1      -4.505  61.594  34.153  1.00  0.00    -0.284 OA
BRANCH  21  22
ATOM     22  P   UNL     1      -3.863  62.552  33.017  1.00  0.00     0.469 P 
ATOM     23  O   UNL     1      -4.648  63.796  32.719  1.00  0.00    -0.228 OA
BRANCH  22  24
ATOM     24  O   UNL     1      -3.637  61.560  31.761  1.00  0.00    -0.303 OA
ATOM     25  H   UNL     1      -2.753  61.525  31.336  1.00  0.00     0.223 HD
ENDBRANCH  22  24
BRANCH  22  26
ATOM     26  O   UNL     1      -2.363  62.806  33.566  1.00  0.00    -0.303 OA
ATOM     27  H   UNL     1      -2.092  63.719  33.801  1.00  0.00     0.223 HD
ENDBRANCH  22  26
ENDBRANCH  21  22
ENDBRANCH  20  21
ENDBRANCH   3  20
BRANCH   2  28
ATOM     28  O   UNL     1      -2.630  63.868  36.536  1.00  0.00    -0.387 OA
ATOM     29  H   UNL     1      -3.495  64.186  36.225  1.00  0.00     0.211 HD
ENDBRANCH   2  28
TORSDOF 14
REMARK SMILES O=c1[nH]cc(F)c(=O)[nH]1
REMARK SMILES IDX 6 1 8 2 1 3 9 4 3 5 7 6 2 7 5 8 4 9
REMARK H PARENT 9 10 3 11
REMARK Flexibility Score: inf
ROOT
ATOM      1  F   UNL     1      -8.097  59.675  35.482  1.00  0.00    -0.199 F 
ATOM      2  O   UNL     1      -7.893  62.123  34.309  1.00  0.00    -0.266 OA
ATOM      3  O   UNL     1      -7.097  64.094  38.423  1.00  0.00    -0.248 OA
ATOM      4  N   UNL     1      -7.494  63.135  36.358  1.00  0.00    -0.272 N 
ATOM      5  N   UNL     1      -7.439  61.818  38.300  1.00  0.00    -0.311 N 
ATOM      6  C   UNL     1      -7.752  62.051  35.525  1.00  0.00     0.289 A 
ATOM      7  C   UNL     1      -7.326  63.089  37.747  1.00  0.00     0.325 A 
ATOM      8  C   UNL     1      -7.848  60.761  36.235  1.00  0.00     0.204 A 
ATOM      9  C   UNL     1      -7.693  60.698  37.556  1.00  0.00     0.132 A 
ATOM     10  H   UNL     1      -7.418  64.047  35.916  1.00  0.00     0.175 HD
ATOM     11  H   UNL     1      -7.330  61.707  39.304  1.00  0.00     0.171 HD
ENDROOT
TORSDOF 0
ENDMDL
MODEL 4
REMARK VINA RESULT:    -8.398      3.635      6.773
REMARK INTER + INTRA:         -15.620
REMARK INTER:                 -14.234
REMARK INTRA:                  -1.386
REMARK UNBOUND:                -2.066
REMARK SMILES O=P(O)(O)OC[C@H]1O[C@H](O[P@@](=O)(O)OP(=O)(O)O)[C@H](O)[C@@H]1O
REMARK SMILES IDX 8 1 21 2 7 3 19 4 9 5 10 6 11 7 12 8 14 9 15 10 16 11 17 12
REMARK SMILES IDX 18 14 13 16 20 18 6 20 5 21 2 22 1 23 3 24 4 26 22 28
REMARK H PARENT 17 13 18 15 13 17 20 19 3 25 4 27 22 29
REMARK Flexibility Score: inf
ROOT
ATOM      1  O   UNL     1      -6.762  61.099  36.805  1.00  0.00    -0.341 OA
ATOM      2  C   UNL     1      -8.243  60.928  34.967  1.00  0.00     0.179 C 
ATOM      3  C   UNL     1      -8.165  61.096  36.479  1.00  0.00     0.179 C 
ATOM      4  C   UNL     1      -6.997  61.660  34.519  1.00  0.00     0.202 C 
ATOM      5  C   UNL     1      -6.010  61.193  35.580  1.00  0.00     0.293 C 
ENDROOT
BRANCH   5   6
ATOM      6  O   UNL     1      -4.909  62.079  35.678  1.00  0.00    -0.253 OA
BRANCH   6   7
ATOM      7  P   UNL     1      -3.435  61.593  35.219  1.00  0.00     0.483 P 
ATOM      8  O   UNL     1      -2.475  61.342  36.346  1.00  0.00    -0.228 OA
BRANCH   7   9
ATOM      9  O   UNL     1      -2.945  62.721  34.170  1.00  0.00    -0.185 OA
BRANCH   9  10
ATOM     10  P   UNL     1      -3.502  63.124  32.708  1.00  0.00     0.478 P 
ATOM     11  O   UNL     1      -3.629  61.978  31.748  1.00  0.00    -0.228 OA
BRANCH  10  12
ATOM     12  O   UNL     1      -2.499  64.304  32.246  1.00  0.00    -0.302 OA
ATOM     13  H   UNL     1      -2.435  65.115  32.795  1.00  0.00     0.223 HD
ENDBRANCH  10  12
BRANCH  10  14
ATOM     14  O   UNL     1      -4.878  63.906  33.036  1.00  0.00    -0.302 OA
ATOM     15  H   UNL     1      -5.732  63.448  32.885  1.00  0.00     0.223 HD
ENDBRANCH  10  14
ENDBRANCH   9  10
ENDBRANCH   7   9
BRANCH   7  16
ATOM     16  O   UNL     1      -3.710  60.306  34.278  1.00  0.00    -0.302 OA
ATOM     17  H   UNL     1      -4.571  59.842  34.349  1.00  0.00     0.223 HD
ENDBRANCH   7  16
ENDBRANCH   6   7
ENDBRANCH   5   6
BRANCH   4  18
ATOM     18  O   UNL     1      -7.205  63.067  34.622  1.00  0.00    -0.385 OA
ATOM     19  H   UNL     1      -6.768  63.392  35.427  1.00  0.00     0.211 HD
ENDBRANCH   4  18
BRANCH   3  20
ATOM     20  C   UNL     1      -8.866  59.986  37.242  1.00  0.00     0.208 C 
BRANCH  20  21
ATOM     21  O   UNL     1      -9.868  60.559  38.066  1.00  0.00    -0.284 OA
BRANCH  21  22
ATOM     22  P   UNL     1      -9.486  60.941  39.592  1.00  0.00     0.469 P 
ATOM     23  O   UNL     1     -10.396  60.363  40.637  1.00  0.00    -0.228 OA
BRANCH  22  24
ATOM     24  O   UNL     1      -9.393  62.554  39.572  1.00  0.00    -0.303 OA
ATOM     25  H   UNL     1     -10.220  63.078  39.511  1.00  0.00     0.223 HD
ENDBRANCH  22  24
BRANCH  22  26
ATOM     26  O   UNL     1      -7.940  60.479  39.703  1.00  0.00    -0.303 OA
ATOM     27  H   UNL     1      -7.371  60.533  38.907  1.00  0.00     0.223 HD
ENDBRANCH  22  26
ENDBRANCH  21  22
ENDBRANCH  20  21
ENDBRANCH   3  20
BRANCH   2  28
ATOM     28  O   UNL     1      -9.433  61.468  34.435  1.00  0.00    -0.387 OA
ATOM     29  H   UNL     1      -9.247  62.382  34.162  1.00  0.00     0.211 HD
ENDBRANCH   2  28
TORSDOF 14
REMARK SMILES O=c1[nH]cc(F)c(=O)[nH]1
REMARK SMILES IDX 6 1 8 2 1 3 9 4 3 5 7 6 2 7 5 8 4 9
REMARK H PARENT 9 10 3 11
REMARK Flexibility Score: inf
ROOT
ATOM      1  F   UNL     1      -3.072  61.958  40.804  1.00  0.00    -0.199 F 
ATOM      2  O   UNL     1      -5.492  62.185  42.031  1.00  0.00    -0.266 OA
ATOM      3  O   UNL     1      -7.293  64.147  38.243  1.00  0.00    -0.248 OA
ATOM      4  N   UNL     1      -6.418  63.172  40.146  1.00  0.00    -0.272 N 
ATOM      5  N   UNL     1      -5.079  63.510  38.249  1.00  0.00    -0.311 N 
ATOM      6  C   UNL     1      -5.387  62.594  40.879  1.00  0.00     0.289 A 
ATOM      7  C   UNL     1      -6.333  63.648  38.832  1.00  0.00     0.325 A 
ATOM      8  C   UNL     1      -4.109  62.507  40.146  1.00  0.00     0.204 A 
ATOM      9  C   UNL     1      -4.009  62.956  38.896  1.00  0.00     0.132 A 
ATOM     10  H   UNL     1      -7.320  63.255  40.607  1.00  0.00     0.175 HD
ATOM     11  H   UNL     1      -4.941  63.835  37.296  1.00  0.00     0.171 HD
ENDROOT
TORSDOF 0
ENDMDL
MODEL 5
REMARK VINA RESULT:    -8.205      3.590      6.341
REMARK INTER + INTRA:         -15.308
REMARK INTER:                 -13.751
REMARK INTRA:                  -1.557
REMARK UNBOUND:                -2.066
REMARK SMILES O=P(O)(O)OC[C@H]1O[C@H](O[P@@](=O)(O)OP(=O)(O)O)[C@H](O)[C@@H]1O
REMARK SMILES IDX 8 1 21 2 7 3 19 4 9 5 10 6 11 7 12 8 14 9 15 10 16 11 17 12
REMARK SMILES IDX 18 14 13 16 20 18 6 20 5 21 2 22 1 23 3 24 4 26 22 28
REMARK H PARENT 17 13 18 15 13 17 20 19 3 25 4 27 22 29
REMARK Flexibility Score: inf
ROOT
ATOM      1  O   UNL     1      -5.095  60.539  36.636  1.00  0.00    -0.341 OA
ATOM      2  C   UNL     1      -2.793  60.148  36.245  1.00  0.00     0.179 C 
ATOM      3  C   UNL     1      -4.040  60.832  35.699  1.00  0.00     0.179 C 
ATOM      4  C   UNL     1      -3.020  60.257  37.736  1.00  0.00     0.202 C 
ATOM      5  C   UNL     1      -4.508  59.945  37.810  1.00  0.00     0.293 C 
ENDROOT
BRANCH   5   6
ATOM      6  O   UNL     1      -5.073  60.435  39.013  1.00  0.00    -0.253 OA
BRANCH   6   7
ATOM      7  P   UNL     1      -6.672  60.347  39.252  1.00  0.00     0.483 P 
ATOM      8  O   UNL     1      -7.305  59.061  38.807  1.00  0.00    -0.228 OA
BRANCH   7   9
ATOM      9  O   UNL     1      -7.264  61.664  38.525  1.00  0.00    -0.185 OA
BRANCH   9  10
ATOM     10  P   UNL     1      -6.821  63.215  38.615  1.00  0.00     0.478 P 
ATOM     11  O   UNL     1      -7.719  64.167  37.882  1.00  0.00    -0.228 OA
BRANCH  10  12
ATOM     12  O   UNL     1      -5.285  63.188  38.111  1.00  0.00    -0.302 OA
ATOM     13  H   UNL     1      -4.980  62.435  37.561  1.00  0.00     0.223 HD
ENDBRANCH  10  12
BRANCH  10  14
ATOM     14  O   UNL     1      -6.691  63.473  40.206  1.00  0.00    -0.302 OA
ATOM     15  H   UNL     1      -7.376  64.011  40.657  1.00  0.00     0.223 HD
ENDBRANCH  10  14
ENDBRANCH   9  10
ENDBRANCH   7   9
BRANCH   7  16
ATOM     16  O   UNL     1      -6.862  60.675  40.825  1.00  0.00    -0.302 OA
ATOM     17  H   UNL     1      -7.393  60.061  41.376  1.00  0.00     0.223 HD
ENDBRANCH   7  16
ENDBRANCH   6   7
ENDBRANCH   5   6
BRANCH   4  18
ATOM     18  O   UNL     1      -2.773  61.596  38.162  1.00  0.00    -0.385 OA
ATOM     19  H   UNL     1      -3.341  62.198  37.653  1.00  0.00     0.211 HD
ENDBRANCH   4  18
BRANCH   3  20
ATOM     20  C   UNL     1      -4.435  60.345  34.316  1.00  0.00     0.208 C 
BRANCH  20  21
ATOM     21  O   UNL     1      -4.953  61.439  33.576  1.00  0.00    -0.284 OA
BRANCH  21  22
ATOM     22  P   UNL     1      -3.912  62.511  32.955  1.00  0.00     0.469 P 
ATOM     23  O   UNL     1      -2.748  62.852  33.840  1.00  0.00    -0.228 OA
BRANCH  22  24
ATOM     24  O   UNL     1      -4.850  63.759  32.535  1.00  0.00    -0.303 OA
ATOM     25  H   UNL     1      -4.690  64.205  31.676  1.00  0.00     0.223 HD
ENDBRANCH  22  24
BRANCH  22  26
ATOM     26  O   UNL     1      -3.516  61.848  31.534  1.00  0.00    -0.303 OA
ATOM     27  H   UNL     1      -3.682  62.355  30.711  1.00  0.00     0.223 HD
ENDBRANCH  22  26
ENDBRANCH  21  22
ENDBRANCH  20  21
ENDBRANCH   3  20
BRANCH   2  28
ATOM     28  O   UNL     1      -1.610  60.780  35.808  1.00  0.00    -0.387 OA
ATOM     29  H   UNL     1      -1.860  61.622  35.393  1.00  0.00     0.211 HD
ENDBRANCH   2  28
TORSDOF 14
REMARK SMILES O=c1[nH]cc(F)c(=O)[nH]1
REMARK SMILES IDX 6 1 8 2 1 3 9 4 3 5 7 6 2 7 5 8 4 9
REMARK H PARENT 9 10 3 11
REMARK Flexibility Score: inf
ROOT
ATOM      1  F   UNL     1      -4.604  60.019  44.269  1.00  0.00    -0.199 F 
ATOM      2  O   UNL     1      -3.039  59.355  42.143  1.00  0.00    -0.266 OA
ATOM      3  O   UNL     1      -3.601  63.581  40.336  1.00  0.00    -0.248 OA
ATOM      4  N   UNL     1      -3.306  61.465  41.216  1.00  0.00    -0.272 N 
ATOM      5  N   UNL     1      -4.620  63.056  42.335  1.00  0.00    -0.311 N 
ATOM      6  C   UNL     1      -3.511  60.486  42.183  1.00  0.00     0.289 A 
ATOM      7  C   UNL     1      -3.827  62.764  41.230  1.00  0.00     0.325 A 
ATOM      8  C   UNL     1      -4.369  60.922  43.301  1.00  0.00     0.204 A 
ATOM      9  C   UNL     1      -4.874  62.154  43.332  1.00  0.00     0.132 A 
ATOM     10  H   UNL     1      -2.721  61.213  40.423  1.00  0.00     0.175 HD
ATOM     11  H   UNL     1      -5.033  63.980  42.414  1.00  0.00     0.171 HD
ENDROOT
TORSDOF 0
ENDMDL
MODEL 6
REMARK VINA RESULT:    -8.168      1.215      4.053
REMARK INTER + INTRA:         -15.249
REMARK INTER:                 -13.149
REMARK INTRA:                  -2.100
REMARK UNBOUND:                -2.066
REMARK SMILES O=P(O)(O)OC[C@H]1O[C@H](O[P@@](=O)(O)OP(=O)(O)O)[C@H](O)[C@@H]1O
REMARK SMILES IDX 8 1 21 2 7 3 19 4 9 5 10 6 11 7 12 8 14 9 15 10 16 11 17 12
REMARK SMILES IDX 18 14 13 16 20 18 6 20 5 21 2 22 1 23 3 24 4 26 22 28
REMARK H PARENT 17 13 18 15 13 17 20 19 3 25 4 27 22 29
REMARK Flexibility Score: inf
ROOT
ATOM      1  O   UNL     1      -2.668  61.189  38.735  1.00  0.00    -0.341 OA
ATOM      2  C   UNL     1      -2.765  61.179  36.370  1.00  0.00     0.179 C 
ATOM      3  C   UNL     1      -2.454  62.037  37.590  1.00  0.00     0.179 C 
ATOM      4  C   UNL     1      -2.319  59.813  36.843  1.00  0.00     0.202 C 
ATOM      5  C   UNL     1      -2.841  59.836  38.273  1.00  0.00     0.293 C 
ENDROOT
BRANCH   5   6
ATOM      6  O   UNL     1      -2.161  58.890  39.080  1.00  0.00    -0.253 OA
BRANCH   6   7
ATOM      7  P   UNL     1      -2.922  58.192  40.326  1.00  0.00     0.483 P 
ATOM      8  O   UNL     1      -3.402  56.793  40.067  1.00  0.00    -0.228 OA
BRANCH   7   9
ATOM      9  O   UNL     1      -4.095  59.234  40.719  1.00  0.00    -0.185 OA
BRANCH   9  10
ATOM     10  P   UNL     1      -4.227  60.264  41.956  1.00  0.00     0.478 P 
ATOM     11  O   UNL     1      -4.157  59.628  43.312  1.00  0.00    -0.228 OA
BRANCH  10  12
ATOM     12  O   UNL     1      -5.603  61.050  41.633  1.00  0.00    -0.302 OA
ATOM     13  H   UNL     1      -6.422  60.784  42.102  1.00  0.00     0.223 HD
ENDBRANCH  10  12
BRANCH  10  14
ATOM     14  O   UNL     1      -3.084  61.365  41.648  1.00  0.00    -0.302 OA
ATOM     15  H   UNL     1      -2.148  61.075  41.593  1.00  0.00     0.223 HD
ENDBRANCH  10  14
ENDBRANCH   9  10
ENDBRANCH   7   9
BRANCH   7  16
ATOM     16  O   UNL     1      -1.881  58.324  41.558  1.00  0.00    -0.302 OA
ATOM     17  H   UNL     1      -2.123  57.936  42.426  1.00  0.00     0.223 HD
ENDBRANCH   7  16
ENDBRANCH   6   7
ENDBRANCH   5   6
BRANCH   4  18
ATOM     18  O   UNL     1      -0.894  59.745  36.837  1.00  0.00    -0.385 OA
ATOM     19  H   UNL     1      -0.539  60.610  36.574  1.00  0.00     0.211 HD
ENDBRANCH   4  18
BRANCH   3  20
ATOM     20  C   UNL     1      -3.334  63.270  37.695  1.00  0.00     0.208 C 
BRANCH  20  21
ATOM     21  O   UNL     1      -4.686  62.884  37.513  1.00  0.00    -0.284 OA
BRANCH  21  22
ATOM     22  P   UNL     1      -5.708  63.046  38.757  1.00  0.00     0.469 P 
ATOM     23  O   UNL     1      -6.641  61.888  38.966  1.00  0.00    -0.228 OA
BRANCH  22  24
ATOM     24  O   UNL     1      -6.423  64.469  38.486  1.00  0.00    -0.303 OA
ATOM     25  H   UNL     1      -7.386  64.490  38.296  1.00  0.00     0.223 HD
ENDBRANCH  22  24
BRANCH  22  26
ATOM     26  O   UNL     1      -4.718  63.357  39.998  1.00  0.00    -0.303 OA
ATOM     27  H   UNL     1      -4.978  64.039  40.653  1.00  0.00     0.223 HD
ENDBRANCH  22  26
ENDBRANCH  21  22
ENDBRANCH  20  21
ENDBRANCH   3  20
BRANCH   2  28
ATOM     28  O   UNL     1      -2.079  61.626  35.221  1.00  0.00    -0.387 OA
ATOM     29  H   UNL     1      -2.382  61.090  34.468  1.00  0.00     0.211 HD
ENDBRANCH   2  28
TORSDOF 14
REMARK SMILES O=c1[nH]cc(F)c(=O)[nH]1
REMARK SMILES IDX 6 1 8 2 1 3 9 4 3 5 7 6 2 7 5 8 4 9
REMARK H PARENT 9 10 3 11
REMARK Flexibility Score: inf
ROOT
ATOM      1  F   UNL     1      -6.443  59.995  34.563  1.00  0.00    -0.199 F 
ATOM      2  O   UNL     1      -6.603  62.678  34.997  1.00  0.00    -0.266 OA
ATOM      3  O   UNL     1      -2.966  63.402  32.223  1.00  0.00    -0.248 OA
ATOM      4  N   UNL     1      -4.782  63.067  33.613  1.00  0.00    -0.272 N 
ATOM      5  N   UNL     1      -3.720  61.252  32.570  1.00  0.00    -0.311 N 
ATOM      6  C   UNL     1      -5.718  62.264  34.255  1.00  0.00     0.289 A 
ATOM      7  C   UNL     1      -3.761  62.629  32.760  1.00  0.00     0.325 A 
ATOM      8  C   UNL     1      -5.565  60.824  33.970  1.00  0.00     0.204 A 
ATOM      9  C   UNL     1      -4.600  60.388  33.162  1.00  0.00     0.132 A 
ATOM     10  H   UNL     1      -4.845  64.069  33.777  1.00  0.00     0.175 HD
ATOM     11  H   UNL     1      -3.006  60.861  31.964  1.00  0.00     0.171 HD
ENDROOT
TORSDOF 0
ENDMDL
MODEL 7
REMARK VINA RESULT:    -8.167      3.221      6.291
REMARK INTER + INTRA:         -15.246
REMARK INTER:                 -13.957
REMARK INTRA:                  -1.289
REMARK UNBOUND:                -2.066
REMARK SMILES O=P(O)(O)OC[C@H]1O[C@H](O[P@@](=O)(O)OP(=O)(O)O)[C@H](O)[C@@H]1O
REMARK SMILES IDX 8 1 21 2 7 3 19 4 9 5 10 6 11 7 12 8 14 9 15 10 16 11 17 12
REMARK SMILES IDX 18 14 13 16 20 18 6 20 5 21 2 22 1 23 3 24 4 26 22 28
REMARK H PARENT 17 13 18 15 13 17 20 19 3 25 4 27 22 29
REMARK Flexibility Score: inf
ROOT
ATOM      1  O   UNL     1      -6.227  62.434  36.169  1.00  0.00    -0.341 OA
ATOM      2  C   UNL     1      -5.245  60.422  35.400  1.00  0.00     0.179 C 
ATOM      3  C   UNL     1      -5.190  61.941  35.299  1.00  0.00     0.179 C 
ATOM      4  C   UNL     1      -5.676  60.233  36.838  1.00  0.00     0.202 C 
ATOM      5  C   UNL     1      -6.721  61.334  36.957  1.00  0.00     0.293 C 
ENDROOT
BRANCH   5   6
ATOM      6  O   UNL     1      -6.941  61.684  38.312  1.00  0.00    -0.253 OA
BRANCH   6   7
ATOM      7  P   UNL     1      -6.673  63.201  38.810  1.00  0.00     0.483 P 
ATOM      8  O   UNL     1      -7.387  64.259  38.018  1.00  0.00    -0.228 OA
BRANCH   7   9
ATOM      9  O   UNL     1      -5.063  63.349  38.812  1.00  0.00    -0.185 OA
BRANCH   9  10
ATOM     10  P   UNL     1      -3.944  62.744  39.807  1.00  0.00     0.478 P 
ATOM     11  O   UNL     1      -2.615  62.474  39.166  1.00  0.00    -0.228 OA
BRANCH  10  12
ATOM     12  O   UNL     1      -4.678  61.452  40.443  1.00  0.00    -0.302 OA
ATOM     13  H   UNL     1      -5.630  61.307  40.254  1.00  0.00     0.223 HD
ENDBRANCH  10  12
BRANCH  10  14
ATOM     14  O   UNL     1      -3.920  63.802  41.029  1.00  0.00    -0.302 OA
ATOM     15  H   UNL     1      -3.492  63.544  41.873  1.00  0.00     0.223 HD
ENDBRANCH  10  14
ENDBRANCH   9  10
ENDBRANCH   7   9
BRANCH   7  16
ATOM     16  O   UNL     1      -7.046  63.180  40.384  1.00  0.00    -0.302 OA
ATOM     17  H   UNL     1      -7.852  62.703  40.674  1.00  0.00     0.223 HD
ENDBRANCH   7  16
ENDBRANCH   6   7
ENDBRANCH   5   6
BRANCH   4  18
ATOM     18  O   UNL     1      -4.576  60.499  37.706  1.00  0.00    -0.385 OA
ATOM     19  H   UNL     1      -4.811  61.235  38.296  1.00  0.00     0.211 HD
ENDBRANCH   4  18
BRANCH   3  20
ATOM     20  C   UNL     1      -5.418  62.457  33.889  1.00  0.00     0.208 C 
BRANCH  20  21
ATOM     21  O   UNL     1      -4.473  63.478  33.617  1.00  0.00    -0.284 OA
BRANCH  21  22
ATOM     22  P   UNL     1      -3.066  63.064  32.932  1.00  0.00     0.469 P 
ATOM     23  O   UNL     1      -2.288  64.203  32.342  1.00  0.00    -0.228 OA
BRANCH  22  24
ATOM     24  O   UNL     1      -3.473  61.894  31.894  1.00  0.00    -0.303 OA
ATOM     25  H   UNL     1      -3.201  61.975  30.955  1.00  0.00     0.223 HD
ENDBRANCH  22  24
BRANCH  22  26
ATOM     26  O   UNL     1      -2.310  62.264  34.117  1.00  0.00    -0.303 OA
ATOM     27  H   UNL     1      -2.829  61.654  34.684  1.00  0.00     0.223 HD
ENDBRANCH  22  26
ENDBRANCH  21  22
ENDBRANCH  20  21
ENDBRANCH   3  20
BRANCH   2  28
ATOM     28  O   UNL     1      -4.001  59.827  35.103  1.00  0.00    -0.387 OA
ATOM     29  H   UNL     1      -4.061  59.445  34.211  1.00  0.00     0.211 HD
ENDBRANCH   2  28
TORSDOF 14
REMARK SMILES O=c1[nH]cc(F)c(=O)[nH]1
REMARK SMILES IDX 6 1 8 2 1 3 9 4 3 5 7 6 2 7 5 8 4 9
REMARK H PARENT 9 10 3 11
REMARK Flexibility Score: inf
ROOT
ATOM      1  F   UNL     1       0.342  57.997  37.644  1.00  0.00    -0.199 F 
ATOM      2  O   UNL     1      -1.846  59.562  37.229  1.00  0.00    -0.266 OA
ATOM      3  O   UNL     1      -3.167  58.981  41.629  1.00  0.00    -0.248 OA
ATOM      4  N   UNL     1      -2.531  59.285  39.429  1.00  0.00    -0.272 N 
ATOM      5  N   UNL     1      -1.239  57.967  40.879  1.00  0.00    -0.311 N 
ATOM      6  C   UNL     1      -1.680  59.085  38.347  1.00  0.00     0.289 A 
ATOM      7  C   UNL     1      -2.370  58.759  40.716  1.00  0.00     0.325 A 
ATOM      8  C   UNL     1      -0.519  58.227  38.652  1.00  0.00     0.204 A 
ATOM      9  C   UNL     1      -0.349  57.717  39.870  1.00  0.00     0.132 A 
ATOM     10  H   UNL     1      -3.347  59.870  39.270  1.00  0.00     0.175 HD
ATOM     11  H   UNL     1      -1.057  57.549  41.786  1.00  0.00     0.171 HD
ENDROOT
TORSDOF 0
ENDMDL
MODEL 8
REMARK VINA RESULT:    -8.082      5.331      7.941
REMARK INTER + INTRA:         -15.110
REMARK INTER:                 -13.438
REMARK INTRA:                  -1.672
REMARK UNBOUND:                -2.066
REMARK SMILES O=P(O)(O)OC[C@H]1O[C@H](O[P@@](=O)(O)OP(=O)(O)O)[C@H](O)[C@@H]1O
REMARK SMILES IDX 8 1 21 2 7 3 19 4 9 5 10 6 11 7 12 8 14 9 15 10 16 11 17 12
REMARK SMILES IDX 18 14 13 16 20 18 6 20 5 21 2 22 1 23 3 24 4 26 22 28
REMARK H PARENT 17 13 18 15 13 17 20 19 3 25 4 27 22 29
REMARK Flexibility Score: inf
ROOT
ATOM      1  O   UNL     1      -4.895  62.070  37.406  1.00  0.00    -0.341 OA
ATOM      2  C   UNL     1      -3.069  60.969  36.379  1.00  0.00     0.179 C 
ATOM      3  C   UNL     1      -4.118  62.058  36.193  1.00  0.00     0.179 C 
ATOM      4  C   UNL     1      -2.810  61.053  37.867  1.00  0.00     0.202 C 
ATOM      5  C   UNL     1      -4.230  61.244  38.381  1.00  0.00     0.293 C 
ENDROOT
BRANCH   5   6
ATOM      6  O   UNL     1      -4.231  61.816  39.677  1.00  0.00    -0.253 OA
BRANCH   6   7
ATOM      7  P   UNL     1      -3.797  60.925  40.956  1.00  0.00     0.483 P 
ATOM      8  O   UNL     1      -3.893  59.440  40.751  1.00  0.00    -0.228 OA
BRANCH   7   9
ATOM      9  O   UNL     1      -4.708  61.485  42.169  1.00  0.00    -0.185 OA
BRANCH   9  10
ATOM     10  P   UNL     1      -5.294  62.963  42.460  1.00  0.00     0.478 P 
ATOM     11  O   UNL     1      -5.741  63.192  43.873  1.00  0.00    -0.228 OA
BRANCH  10  12
ATOM     12  O   UNL     1      -6.444  63.129  41.336  1.00  0.00    -0.302 OA
ATOM     13  H   UNL     1      -6.180  63.321  40.411  1.00  0.00     0.223 HD
ENDBRANCH  10  12
BRANCH  10  14
ATOM     14  O   UNL     1      -4.116  63.940  41.940  1.00  0.00    -0.302 OA
ATOM     15  H   UNL     1      -4.292  64.534  41.180  1.00  0.00     0.223 HD
ENDBRANCH  10  14
ENDBRANCH   9  10
ENDBRANCH   7   9
BRANCH   7  16
ATOM     16  O   UNL     1      -2.315  61.452  41.331  1.00  0.00    -0.302 OA
ATOM     17  H   UNL     1      -1.624  60.797  41.567  1.00  0.00     0.223 HD
ENDBRANCH   7  16
ENDBRANCH   6   7
ENDBRANCH   5   6
BRANCH   4  18
ATOM     18  O   UNL     1      -2.021  62.206  38.152  1.00  0.00    -0.385 OA
ATOM     19  H   UNL     1      -2.133  62.850  37.433  1.00  0.00     0.211 HD
ENDBRANCH   4  18
BRANCH   3  20
ATOM     20  C   UNL     1      -5.030  61.816  35.004  1.00  0.00     0.208 C 
BRANCH  20  21
ATOM     21  O   UNL     1      -4.241  61.415  33.896  1.00  0.00    -0.284 OA
BRANCH  21  22
ATOM     22  P   UNL     1      -3.779  62.542  32.830  1.00  0.00     0.469 P 
ATOM     23  O   UNL     1      -4.716  63.706  32.691  1.00  0.00    -0.228 OA
BRANCH  22  24
ATOM     24  O   UNL     1      -3.513  61.703  31.475  1.00  0.00    -0.303 OA
ATOM     25  H   UNL     1      -2.752  61.083  31.440  1.00  0.00     0.223 HD
ENDBRANCH  22  24
BRANCH  22  26
ATOM     26  O   UNL     1      -2.289  62.922  33.331  1.00  0.00    -0.303 OA
ATOM     27  H   UNL     1      -2.168  63.269  34.241  1.00  0.00     0.223 HD
ENDBRANCH  22  26
ENDBRANCH  21  22
ENDBRANCH  20  21
ENDBRANCH   3  20
BRANCH   2  28
ATOM     28  O   UNL     1      -1.920  61.202  35.595  1.00  0.00    -0.387 OA
ATOM     29  H   UNL     1      -1.875  62.156  35.411  1.00  0.00     0.211 HD
ENDBRANCH   2  28
TORSDOF 14
REMARK SMILES O=c1[nH]cc(F)c(=O)[nH]1
REMARK SMILES IDX 6 1 8 2 1 3 9 4 3 5 7 6 2 7 5 8 4 9
REMARK H PARENT 9 10 3 11
REMARK Flexibility Score: inf
ROOT
ATOM      1  F   UNL     1       5.847  54.406  37.758  1.00  0.00    -0.199 F 
ATOM      2  O   UNL     1       6.733  56.244  39.559  1.00  0.00    -0.266 OA
ATOM      3  O   UNL     1       2.381  57.170  40.843  1.00  0.00    -0.248 OA
ATOM      4  N   UNL     1       4.561  56.728  40.219  1.00  0.00    -0.272 N 
ATOM      5  N   UNL     1       2.772  55.595  39.207  1.00  0.00    -0.311 N 
ATOM      6  C   UNL     1       5.524  56.061  39.467  1.00  0.00     0.289 A 
ATOM      7  C   UNL     1       3.176  56.543  40.141  1.00  0.00     0.325 A 
ATOM      8  C   UNL     1       4.964  55.083  38.515  1.00  0.00     0.204 A 
ATOM      9  C   UNL     1       3.649  54.894  38.425  1.00  0.00     0.132 A 
ATOM     10  H   UNL     1       4.896  57.413  40.891  1.00  0.00     0.175 HD
ATOM     11  H   UNL     1       1.781  55.407  39.093  1.00  0.00     0.171 HD
ENDROOT
TORSDOF 0
ENDMDL
MODEL 9
REMARK VINA RESULT:    -8.064      5.576      8.271
REMARK INTER + INTRA:         -15.081
REMARK INTER:                 -13.554
REMARK INTRA:                  -1.527
REMARK UNBOUND:                -2.066
REMARK SMILES O=P(O)(O)OC[C@H]1O[C@H](O[P@@](=O)(O)OP(=O)(O)O)[C@H](O)[C@@H]1O
REMARK SMILES IDX 8 1 21 2 7 3 19 4 9 5 10 6 11 7 12 8 14 9 15 10 16 11 17 12
REMARK SMILES IDX 18 14 13 16 20 18 6 20 5 21 2 22 1 23 3 24 4 26 22 28
REMARK H PARENT 17 13 18 15 13 17 20 19 3 25 4 27 22 29
REMARK Flexibility Score: inf
ROOT
ATOM      1  O   UNL     1      -4.477  62.602  37.455  1.00  0.00    -0.341 OA
ATOM      2  C   UNL     1      -2.906  61.118  36.490  1.00  0.00     0.179 C 
ATOM      3  C   UNL     1      -3.838  62.288  36.202  1.00  0.00     0.179 C 
ATOM      4  C   UNL     1      -2.484  61.413  37.913  1.00  0.00     0.202 C 
ATOM      5  C   UNL     1      -3.811  61.870  38.502  1.00  0.00     0.293 C 
ENDROOT
BRANCH   5   6
ATOM      6  O   UNL     1      -3.611  62.645  39.671  1.00  0.00    -0.253 OA
BRANCH   6   7
ATOM      7  P   UNL     1      -4.764  62.711  40.805  1.00  0.00     0.483 P 
ATOM      8  O   UNL     1      -4.490  63.674  41.925  1.00  0.00    -0.228 OA
BRANCH   7   9
ATOM      9  O   UNL     1      -4.954  61.178  41.281  1.00  0.00    -0.185 OA
BRANCH   9  10
ATOM     10  P   UNL     1      -3.960  60.183  42.076  1.00  0.00     0.478 P 
ATOM     11  O   UNL     1      -4.293  59.991  43.526  1.00  0.00    -0.228 OA
BRANCH  10  12
ATOM     12  O   UNL     1      -2.500  60.812  41.781  1.00  0.00    -0.302 OA
ATOM     13  H   UNL     1      -2.374  61.781  41.870  1.00  0.00     0.223 HD
ENDBRANCH  10  12
BRANCH  10  14
ATOM     14  O   UNL     1      -3.980  58.840  41.178  1.00  0.00    -0.302 OA
ATOM     15  H   UNL     1      -3.544  58.031  41.523  1.00  0.00     0.223 HD
ENDBRANCH  10  14
ENDBRANCH   9  10
ENDBRANCH   7   9
BRANCH   7  16
ATOM     16  O   UNL     1      -6.122  63.016  39.981  1.00  0.00    -0.302 OA
ATOM     17  H   UNL     1      -6.683  62.262  39.697  1.00  0.00     0.223 HD
ENDBRANCH   7  16
ENDBRANCH   6   7
ENDBRANCH   5   6
BRANCH   4  18
ATOM     18  O   UNL     1      -1.544  62.486  37.921  1.00  0.00    -0.385 OA
ATOM     19  H   UNL     1      -1.409  62.794  37.008  1.00  0.00     0.211 HD
ENDBRANCH   4  18
BRANCH   3  20
ATOM     20  C   UNL     1      -4.892  61.972  35.156  1.00  0.00     0.208 C 
BRANCH  20  21
ATOM     21  O   UNL     1      -4.247  61.484  33.991  1.00  0.00    -0.284 OA
BRANCH  21  22
ATOM     22  P   UNL     1      -3.803  62.546  32.853  1.00  0.00     0.469 P 
ATOM     23  O   UNL     1      -4.717  63.725  32.694  1.00  0.00    -0.228 OA
BRANCH  22  24
ATOM     24  O   UNL     1      -3.611  61.636  31.531  1.00  0.00    -0.303 OA
ATOM     25  H   UNL     1      -4.077  60.774  31.476  1.00  0.00     0.223 HD
ENDBRANCH  22  24
BRANCH  22  26
ATOM     26  O   UNL     1      -2.285  62.913  33.276  1.00  0.00    -0.303 OA
ATOM     27  H   UNL     1      -1.544  62.556  32.742  1.00  0.00     0.223 HD
ENDBRANCH  22  26
ENDBRANCH  21  22
ENDBRANCH  20  21
ENDBRANCH   3  20
BRANCH   2  28
ATOM     28  O   UNL     1      -1.826  61.067  35.583  1.00  0.00    -0.387 OA
ATOM     29  H   UNL     1      -2.163  61.319  34.707  1.00  0.00     0.211 HD
ENDBRANCH   2  28
TORSDOF 14
REMARK SMILES O=c1[nH]cc(F)c(=O)[nH]1
REMARK SMILES IDX 6 1 8 2 1 3 9 4 3 5 7 6 2 7 5 8 4 9
REMARK H PARENT 9 10 3 11
REMARK Flexibility Score: inf
ROOT
ATOM      1  F   UNL     1       4.455  52.928  36.598  1.00  0.00    -0.199 F 
ATOM      2  O   UNL     1       6.760  53.456  37.946  1.00  0.00    -0.266 OA
ATOM      3  O   UNL     1       4.640  56.771  40.387  1.00  0.00    -0.248 OA
ATOM      4  N   UNL     1       5.721  55.123  39.181  1.00  0.00    -0.272 N 
ATOM      5  N   UNL     1       3.451  55.588  38.807  1.00  0.00    -0.311 N 
ATOM      6  C   UNL     1       5.764  54.116  38.223  1.00  0.00     0.289 A 
ATOM      7  C   UNL     1       4.604  55.894  39.523  1.00  0.00     0.325 A 
ATOM      8  C   UNL     1       4.477  53.890  37.537  1.00  0.00     0.204 A 
ATOM      9  C   UNL     1       3.403  54.614  37.847  1.00  0.00     0.132 A 
ATOM     10  H   UNL     1       6.584  55.317  39.684  1.00  0.00     0.175 HD
ATOM     11  H   UNL     1       2.600  56.107  39.000  1.00  0.00     0.171 HD
ENDROOT
TORSDOF 0
ENDMDL
MODEL 10
REMARK VINA RESULT:    -8.051      3.469      6.952
REMARK INTER + INTRA:         -15.060
REMARK INTER:                 -13.379
REMARK INTRA:                  -1.681
REMARK UNBOUND:                -2.066
REMARK SMILES O=P(O)(O)OC[C@H]1O[C@H](O[P@@](=O)(O)OP(=O)(O)O)[C@H](O)[C@@H]1O
REMARK SMILES IDX 8 1 21 2 7 3 19 4 9 5 10 6 11 7 12 8 14 9 15 10 16 11 17 12
REMARK SMILES IDX 18 14 13 16 20 18 6 20 5 21 2 22 1 23 3 24 4 26 22 28
REMARK H PARENT 17 13 18 15 13 17 20 19 3 25 4 27 22 29
REMARK Flexibility Score: inf
ROOT
ATOM      1  O   UNL     1      -4.668  60.760  37.401  1.00  0.00    -0.341 OA
ATOM      2  C   UNL     1      -2.895  60.307  35.900  1.00  0.00     0.179 C 
ATOM      3  C   UNL     1      -3.846  61.388  36.399  1.00  0.00     0.179 C 
ATOM      4  C   UNL     1      -2.691  59.486  37.154  1.00  0.00     0.202 C 
ATOM      5  C   UNL     1      -4.111  59.466  37.702  1.00  0.00     0.293 C 
ENDROOT
BRANCH   5   6
ATOM      6  O   UNL     1      -4.119  59.174  39.088  1.00  0.00    -0.253 OA
BRANCH   6   7
ATOM      7  P   UNL     1      -4.339  57.652  39.594  1.00  0.00     0.483 P 
ATOM      8  O   UNL     1      -5.072  57.522  40.898  1.00  0.00    -0.228 OA
BRANCH   7   9
ATOM      9  O   UNL     1      -2.855  57.009  39.602  1.00  0.00    -0.185 OA
BRANCH   9  10
ATOM     10  P   UNL     1      -1.518  57.439  40.400  1.00  0.00     0.478 P 
ATOM     11  O   UNL     1      -0.404  57.943  39.531  1.00  0.00    -0.228 OA
BRANCH  10  12
ATOM     12  O   UNL     1      -1.172  56.121  41.270  1.00  0.00    -0.302 OA
ATOM     13  H   UNL     1      -1.412  56.104  42.221  1.00  0.00     0.223 HD
ENDBRANCH  10  12
BRANCH  10  14
ATOM     14  O   UNL     1      -2.062  58.487  41.503  1.00  0.00    -0.302 OA
ATOM     15  H   UNL     1      -1.591  58.561  42.361  1.00  0.00     0.223 HD
ENDBRANCH  10  14
ENDBRANCH   9  10
ENDBRANCH   7   9
BRANCH   7  16
ATOM     16  O   UNL     1      -5.057  56.913  38.348  1.00  0.00    -0.302 OA
ATOM     17  H   UNL     1      -5.680  56.177  38.528  1.00  0.00     0.223 HD
ENDBRANCH   7  16
ENDBRANCH   6   7
ENDBRANCH   5   6
BRANCH   4  18
ATOM     18  O   UNL     1      -1.825  60.183  38.048  1.00  0.00    -0.385 OA
ATOM     19  H   UNL     1      -0.980  60.354  37.599  1.00  0.00     0.211 HD
ENDBRANCH   4  18
BRANCH   3  20
ATOM     20  C   UNL     1      -4.725  61.965  35.304  1.00  0.00     0.208 C 
BRANCH  20  21
ATOM     21  O   UNL     1      -4.278  61.473  34.051  1.00  0.00    -0.284 OA
BRANCH  21  22
ATOM     22  P   UNL     1      -3.809  62.539  32.927  1.00  0.00     0.469 P 
ATOM     23  O   UNL     1      -4.723  63.716  32.749  1.00  0.00    -0.228 OA
BRANCH  22  24
ATOM     24  O   UNL     1      -3.583  61.633  31.608  1.00  0.00    -0.303 OA
ATOM     25  H   UNL     1      -3.478  60.662  31.710  1.00  0.00     0.223 HD
ENDBRANCH  22  24
BRANCH  22  26
ATOM     26  O   UNL     1      -2.303  62.909  33.387  1.00  0.00    -0.303 OA
ATOM     27  H   UNL     1      -1.669  63.238  32.716  1.00  0.00     0.223 HD
ENDBRANCH  22  26
ENDBRANCH  21  22
ENDBRANCH  20  21
ENDBRANCH   3  20
BRANCH   2  28
ATOM     28  O   UNL     1      -1.700  60.851  35.384  1.00  0.00    -0.387 OA
ATOM     29  H   UNL     1      -1.677  61.793  35.622  1.00  0.00     0.211 HD
ENDBRANCH   2  28
TORSDOF 14
REMARK SMILES O=c1[nH]cc(F)c(=O)[nH]1
REMARK SMILES IDX 6 1 8 2 1 3 9 4 3 5 7 6 2 7 5 8 4 9
REMARK H PARENT 9 10 3 11
REMARK Flexibility Score: inf
ROOT
ATOM      1  F   UNL     1      -5.031  63.596  39.214  1.00  0.00    -0.199 F 
ATOM      2  O   UNL     1      -2.549  62.538  39.575  1.00  0.00    -0.266 OA
ATOM      3  O   UNL     1      -4.068  60.054  43.176  1.00  0.00    -0.248 OA
ATOM      4  N   UNL     1      -3.285  61.284  41.383  1.00  0.00    -0.272 N 
ATOM      5  N   UNL     1      -5.531  61.431  42.047  1.00  0.00    -0.311 N 
ATOM      6  C   UNL     1      -3.443  62.188  40.338  1.00  0.00     0.289 A 
ATOM      7  C   UNL     1      -4.282  60.863  42.271  1.00  0.00     0.325 A 
ATOM      8  C   UNL     1      -4.815  62.716  40.208  1.00  0.00     0.204 A 
ATOM      9  C   UNL     1      -5.777  62.328  41.044  1.00  0.00     0.132 A 
ATOM     10  H   UNL     1      -2.357  60.891  41.515  1.00  0.00     0.175 HD
ATOM     11  H   UNL     1      -6.305  61.173  42.652  1.00  0.00     0.171 HD
ENDROOT
TORSDOF 0
ENDMDL
MODEL 11
REMARK VINA RESULT:    -8.032      3.052      6.286
REMARK INTER + INTRA:         -15.029
REMARK INTER:                 -13.500
REMARK INTRA:                  -1.529
REMARK UNBOUND:                -2.066
REMARK SMILES O=P(O)(O)OC[C@H]1O[C@H](O[P@@](=O)(O)OP(=O)(O)O)[C@H](O)[C@@H]1O
REMARK SMILES IDX 8 1 21 2 7 3 19 4 9 5 10 6 11 7 12 8 14 9 15 10 16 11 17 12
REMARK SMILES IDX 18 14 13 16 20 18 6 20 5 21 2 22 1 23 3 24 4 26 22 28
REMARK H PARENT 17 13 18 15 13 17 20 19 3 25 4 27 22 29
REMARK Flexibility Score: inf
ROOT
ATOM      1  O   UNL     1      -4.914  60.932  37.278  1.00  0.00    -0.341 OA
ATOM      2  C   UNL     1      -3.058  60.551  35.859  1.00  0.00     0.179 C 
ATOM      3  C   UNL     1      -4.118  61.570  36.261  1.00  0.00     0.179 C 
ATOM      4  C   UNL     1      -2.824  59.830  37.168  1.00  0.00     0.202 C 
ATOM      5  C   UNL     1      -4.255  59.715  37.676  1.00  0.00     0.293 C 
ENDROOT
BRANCH   5   6
ATOM      6  O   UNL     1      -4.284  59.509  39.078  1.00  0.00    -0.253 OA
BRANCH   6   7
ATOM      7  P   UNL     1      -4.748  58.079  39.676  1.00  0.00     0.483 P 
ATOM      8  O   UNL     1      -5.951  58.133  40.574  1.00  0.00    -0.228 OA
BRANCH   7   9
ATOM      9  O   UNL     1      -3.421  57.483  40.382  1.00  0.00    -0.185 OA
BRANCH   9  10
ATOM     10  P   UNL     1      -1.896  58.016  40.392  1.00  0.00     0.478 P 
ATOM     11  O   UNL     1      -1.153  57.813  39.105  1.00  0.00    -0.228 OA
BRANCH  10  12
ATOM     12  O   UNL     1      -1.258  57.278  41.680  1.00  0.00    -0.302 OA
ATOM     13  H   UNL     1      -1.643  57.452  42.566  1.00  0.00     0.223 HD
ENDBRANCH  10  12
BRANCH  10  14
ATOM     14  O   UNL     1      -2.041  59.553  40.871  1.00  0.00    -0.302 OA
ATOM     15  H   UNL     1      -2.907  59.866  41.208  1.00  0.00     0.223 HD
ENDBRANCH  10  14
ENDBRANCH   9  10
ENDBRANCH   7   9
BRANCH   7  16
ATOM     16  O   UNL     1      -4.930  57.137  38.374  1.00  0.00    -0.302 OA
ATOM     17  H   UNL     1      -4.429  57.353  37.559  1.00  0.00     0.223 HD
ENDBRANCH   7  16
ENDBRANCH   6   7
ENDBRANCH   5   6
BRANCH   4  18
ATOM     18  O   UNL     1      -2.055  60.656  38.040  1.00  0.00    -0.385 OA
ATOM     19  H   UNL     1      -1.564  60.090  38.659  1.00  0.00     0.211 HD
ENDBRANCH   4  18
BRANCH   3  20
ATOM     20  C   UNL     1      -5.008  61.997  35.107  1.00  0.00     0.208 C 
BRANCH  20  21
ATOM     21  O   UNL     1      -4.423  61.558  33.892  1.00  0.00    -0.284 OA
BRANCH  21  22
ATOM     22  P   UNL     1      -3.818  62.668  32.882  1.00  0.00     0.469 P 
ATOM     23  O   UNL     1      -2.539  63.309  33.335  1.00  0.00    -0.228 OA
BRANCH  22  24
ATOM     24  O   UNL     1      -5.053  63.684  32.643  1.00  0.00    -0.303 OA
ATOM     25  H   UNL     1      -4.944  64.629  32.883  1.00  0.00     0.223 HD
ENDBRANCH  22  24
BRANCH  22  26
ATOM     26  O   UNL     1      -3.721  61.866  31.481  1.00  0.00    -0.303 OA
ATOM     27  H   UNL     1      -3.201  61.034  31.446  1.00  0.00     0.223 HD
ENDBRANCH  22  26
ENDBRANCH  21  22
ENDBRANCH  20  21
ENDBRANCH   3  20
BRANCH   2  28
ATOM     28  O   UNL     1      -1.900  61.169  35.343  1.00  0.00    -0.387 OA
ATOM     29  H   UNL     1      -1.840  60.945  34.399  1.00  0.00     0.211 HD
ENDBRANCH   2  28
TORSDOF 14
REMARK SMILES O=c1[nH]cc(F)c(=O)[nH]1
REMARK SMILES IDX 6 1 8 2 1 3 9 4 3 5 7 6 2 7 5 8 4 9
REMARK H PARENT 9 10 3 11
REMARK Flexibility Score: inf
ROOT
ATOM      1  F   UNL     1      -8.714  62.605  39.565  1.00  0.00    -0.199 F 
ATOM      2  O   UNL     1      -7.443  64.422  37.986  1.00  0.00    -0.266 OA
ATOM      3  O   UNL     1      -3.331  63.042  39.607  1.00  0.00    -0.248 OA
ATOM      4  N   UNL     1      -5.371  63.750  38.784  1.00  0.00    -0.272 N 
ATOM      5  N   UNL     1      -5.253  62.036  40.382  1.00  0.00    -0.311 N 
ATOM      6  C   UNL     1      -6.759  63.705  38.709  1.00  0.00     0.289 A 
ATOM      7  C   UNL     1      -4.559  62.947  39.594  1.00  0.00     0.325 A 
ATOM      8  C   UNL     1      -7.372  62.696  39.594  1.00  0.00     0.204 A 
ATOM      9  C   UNL     1      -6.617  61.924  40.373  1.00  0.00     0.132 A 
ATOM     10  H   UNL     1      -4.899  64.430  38.192  1.00  0.00     0.175 HD
ATOM     11  H   UNL     1      -4.731  61.419  40.998  1.00  0.00     0.171 HD
ENDROOT
TORSDOF 0
ENDMDL
MODEL 12
REMARK VINA RESULT:    -8.010      2.641      4.936
REMARK INTER + INTRA:         -14.993
REMARK INTER:                 -13.338
REMARK INTRA:                  -1.656
REMARK UNBOUND:                -2.066
REMARK SMILES O=P(O)(O)OC[C@H]1O[C@H](O[P@@](=O)(O)OP(=O)(O)O)[C@H](O)[C@@H]1O
REMARK SMILES IDX 8 1 21 2 7 3 19 4 9 5 10 6 11 7 12 8 14 9 15 10 16 11 17 12
REMARK SMILES IDX 18 14 13 16 20 18 6 20 5 21 2 22 1 23 3 24 4 26 22 28
REMARK H PARENT 17 13 18 15 13 17 20 19 3 25 4 27 22 29
REMARK Flexibility Score: inf
ROOT
ATOM      1  O   UNL     1      -2.771  61.334  37.834  1.00  0.00    -0.341 OA
ATOM      2  C   UNL     1      -3.612  60.083  36.009  1.00  0.00     0.179 C 
ATOM      3  C   UNL     1      -2.686  61.229  36.399  1.00  0.00     0.179 C 
ATOM      4  C   UNL     1      -3.474  59.165  37.203  1.00  0.00     0.202 C 
ATOM      5  C   UNL     1      -3.481  60.185  38.333  1.00  0.00     0.293 C 
ENDROOT
BRANCH   5   6
ATOM      6  O   UNL     1      -2.900  59.649  39.509  1.00  0.00    -0.253 OA
BRANCH   6   7
ATOM      7  P   UNL     1      -3.201  60.330  40.945  1.00  0.00     0.483 P 
ATOM      8  O   UNL     1      -3.150  59.387  42.113  1.00  0.00    -0.228 OA
BRANCH   7   9
ATOM      9  O   UNL     1      -4.625  61.071  40.753  1.00  0.00    -0.185 OA
BRANCH   9  10
ATOM     10  P   UNL     1      -5.172  62.481  41.319  1.00  0.00     0.478 P 
ATOM     11  O   UNL     1      -6.659  62.658  41.230  1.00  0.00    -0.228 OA
BRANCH  10  12
ATOM     12  O   UNL     1      -4.298  63.568  40.503  1.00  0.00    -0.302 OA
ATOM     13  H   UNL     1      -4.690  63.995  39.711  1.00  0.00     0.223 HD
ENDBRANCH  10  12
BRANCH  10  14
ATOM     14  O   UNL     1      -4.557  62.547  42.812  1.00  0.00    -0.302 OA
ATOM     15  H   UNL     1      -4.476  63.419  43.255  1.00  0.00     0.223 HD
ENDBRANCH  10  14
ENDBRANCH   9  10
ENDBRANCH   7   9
BRANCH   7  16
ATOM     16  O   UNL     1      -2.153  61.560  41.035  1.00  0.00    -0.302 OA
ATOM     17  H   UNL     1      -1.200  61.383  40.883  1.00  0.00     0.223 HD
ENDBRANCH   7  16
ENDBRANCH   6   7
ENDBRANCH   5   6
BRANCH   4  18
ATOM     18  O   UNL     1      -2.216  58.495  37.149  1.00  0.00    -0.385 OA
ATOM     19  H   UNL     1      -2.094  58.124  36.260  1.00  0.00     0.211 HD
ENDBRANCH   4  18
BRANCH   3  20
ATOM     20  C   UNL     1      -3.071  62.554  35.765  1.00  0.00     0.208 C 
BRANCH  20  21
ATOM     21  O   UNL     1      -4.021  62.312  34.741  1.00  0.00    -0.284 OA
BRANCH  21  22
ATOM     22  P   UNL     1      -3.699  62.849  33.248  1.00  0.00     0.469 P 
ATOM     23  O   UNL     1      -4.771  63.702  32.636  1.00  0.00    -0.228 OA
BRANCH  22  24
ATOM     24  O   UNL     1      -3.331  61.506  32.428  1.00  0.00    -0.303 OA
ATOM     25  H   UNL     1      -2.877  60.773  32.895  1.00  0.00     0.223 HD
ENDBRANCH  22  24
BRANCH  22  26
ATOM     26  O   UNL     1      -2.267  63.579  33.429  1.00  0.00    -0.303 OA
ATOM     27  H   UNL     1      -2.044  64.337  32.848  1.00  0.00     0.223 HD
ENDBRANCH  22  26
ENDBRANCH  21  22
ENDBRANCH  20  21
ENDBRANCH   3  20
BRANCH   2  28
ATOM     28  O   UNL     1      -3.226  59.483  34.791  1.00  0.00    -0.387 OA
ATOM     29  H   UNL     1      -4.033  59.311  34.277  1.00  0.00     0.211 HD
ENDBRANCH   2  28
TORSDOF 14
REMARK SMILES O=c1[nH]cc(F)c(=O)[nH]1
REMARK SMILES IDX 6 1 8 2 1 3 9 4 3 5 7 6 2 7 5 8 4 9
REMARK H PARENT 9 10 3 11
REMARK Flexibility Score: inf
ROOT
ATOM      1  F   UNL     1      -9.242  59.826  35.947  1.00  0.00    -0.199 F 
ATOM      2  O   UNL     1      -8.262  61.878  34.452  1.00  0.00    -0.266 OA
ATOM      3  O   UNL     1      -5.533  63.202  37.951  1.00  0.00    -0.248 OA
ATOM      4  N   UNL     1      -6.887  62.563  36.191  1.00  0.00    -0.272 N 
ATOM      5  N   UNL     1      -6.911  61.373  38.214  1.00  0.00    -0.311 N 
ATOM      6  C   UNL     1      -7.838  61.742  35.595  1.00  0.00     0.289 A 
ATOM      7  C   UNL     1      -6.380  62.435  37.490  1.00  0.00     0.325 A 
ATOM      8  C   UNL     1      -8.320  60.654  36.468  1.00  0.00     0.204 A 
ATOM      9  C   UNL     1      -7.851  60.517  37.707  1.00  0.00     0.132 A 
ATOM     10  H   UNL     1      -6.523  63.328  35.629  1.00  0.00     0.175 HD
ATOM     11  H   UNL     1      -6.592  61.218  39.165  1.00  0.00     0.171 HD
ENDROOT
TORSDOF 0
ENDMDL
MODEL 13
REMARK VINA RESULT:    -7.968      5.740      8.524
REMARK INTER + INTRA:         -14.925
REMARK INTER:                 -12.930
REMARK INTRA:                  -1.995
REMARK UNBOUND:                -2.066
REMARK SMILES O=P(O)(O)OC[C@H]1O[C@H](O[P@@](=O)(O)OP(=O)(O)O)[C@H](O)[C@@H]1O
REMARK SMILES IDX 8 1 21 2 7 3 19 4 9 5 10 6 11 7 12 8 14 9 15 10 16 11 17 12
REMARK SMILES IDX 18 14 13 16 20 18 6 20 5 21 2 22 1 23 3 24 4 26 22 28
REMARK H PARENT 17 13 18 15 13 17 20 19 3 25 4 27 22 29
REMARK Flexibility Score: inf
ROOT
ATOM      1  O   UNL     1      -4.974  62.720  37.157  1.00  0.00    -0.341 OA
ATOM      2  C   UNL     1      -5.593  62.517  39.432  1.00  0.00     0.179 C 
ATOM      3  C   UNL     1      -4.472  62.938  38.489  1.00  0.00     0.179 C 
ATOM      4  C   UNL     1      -6.818  62.892  38.628  1.00  0.00     0.202 C 
ATOM      5  C   UNL     1      -6.384  62.438  37.242  1.00  0.00     0.293 C 
ENDROOT
BRANCH   5   6
ATOM      6  O   UNL     1      -7.136  63.089  36.233  1.00  0.00    -0.253 OA
BRANCH   6   7
ATOM      7  P   UNL     1      -7.079  62.553  34.707  1.00  0.00     0.483 P 
ATOM      8  O   UNL     1      -8.164  61.583  34.339  1.00  0.00    -0.228 OA
BRANCH   7   9
ATOM      9  O   UNL     1      -5.581  61.966  34.539  1.00  0.00    -0.185 OA
BRANCH   9  10
ATOM     10  P   UNL     1      -4.321  62.505  33.684  1.00  0.00     0.478 P 
ATOM     11  O   UNL     1      -4.670  63.482  32.601  1.00  0.00    -0.228 OA
BRANCH  10  12
ATOM     12  O   UNL     1      -3.610  61.143  33.181  1.00  0.00    -0.302 OA
ATOM     13  H   UNL     1      -2.694  60.950  33.474  1.00  0.00     0.223 HD
ENDBRANCH  10  12
BRANCH  10  14
ATOM     14  O   UNL     1      -3.312  63.061  34.817  1.00  0.00    -0.302 OA
ATOM     15  H   UNL     1      -2.584  62.483  35.130  1.00  0.00     0.223 HD
ENDBRANCH  10  14
ENDBRANCH   9  10
ENDBRANCH   7   9
BRANCH   7  16
ATOM     16  O   UNL     1      -7.053  63.898  33.809  1.00  0.00    -0.302 OA
ATOM     17  H   UNL     1      -6.327  64.545  33.943  1.00  0.00     0.223 HD
ENDBRANCH   7  16
ENDBRANCH   6   7
ENDBRANCH   5   6
BRANCH   4  18
ATOM     18  O   UNL     1      -6.993  64.307  38.653  1.00  0.00    -0.385 OA
ATOM     19  H   UNL     1      -7.351  64.565  39.519  1.00  0.00     0.211 HD
ENDBRANCH   4  18
BRANCH   3  20
ATOM     20  C   UNL     1      -3.191  62.147  38.689  1.00  0.00     0.208 C 
BRANCH  20  21
ATOM     21  O   UNL     1      -2.536  62.014  37.439  1.00  0.00    -0.284 OA
BRANCH  21  22
ATOM     22  P   UNL     1      -2.356  60.531  36.816  1.00  0.00     0.469 P 
ATOM     23  O   UNL     1      -1.786  59.513  37.760  1.00  0.00    -0.228 OA
BRANCH  22  24
ATOM     24  O   UNL     1      -1.499  60.781  35.469  1.00  0.00    -0.303 OA
ATOM     25  H   UNL     1      -0.729  60.203  35.281  1.00  0.00     0.223 HD
ENDBRANCH  22  24
BRANCH  22  26
ATOM     26  O   UNL     1      -3.836  60.192  36.259  1.00  0.00    -0.303 OA
ATOM     27  H   UNL     1      -4.065  59.260  36.058  1.00  0.00     0.223 HD
ENDBRANCH  22  26
ENDBRANCH  21  22
ENDBRANCH  20  21
ENDBRANCH   3  20
BRANCH   2  28
ATOM     28  O   UNL     1      -5.513  63.178  40.676  1.00  0.00    -0.387 OA
ATOM     29  H   UNL     1      -6.175  62.780  41.266  1.00  0.00     0.211 HD
ENDBRANCH   2  28
TORSDOF 14
REMARK SMILES O=c1[nH]cc(F)c(=O)[nH]1
REMARK SMILES IDX 6 1 8 2 1 3 9 4 3 5 7 6 2 7 5 8 4 9
REMARK H PARENT 9 10 3 11
REMARK Flexibility Score: inf
ROOT
ATOM      1  F   UNL     1       2.669  56.054  38.517  1.00  0.00    -0.199 F 
ATOM      2  O   UNL     1       5.130  55.225  37.703  1.00  0.00    -0.266 OA
ATOM      3  O   UNL     1       6.537  54.888  42.102  1.00  0.00    -0.248 OA
ATOM      4  N   UNL     1       5.860  55.049  39.898  1.00  0.00    -0.272 N 
ATOM      5  N   UNL     1       4.386  55.580  41.646  1.00  0.00    -0.311 N 
ATOM      6  C   UNL     1       4.924  55.327  38.907  1.00  0.00     0.289 A 
ATOM      7  C   UNL     1       5.658  55.153  41.280  1.00  0.00     0.325 A 
ATOM      8  C   UNL     1       3.616  55.770  39.429  1.00  0.00     0.204 A 
ATOM      9  C   UNL     1       3.406  55.876  40.739  1.00  0.00     0.132 A 
ATOM     10  H   UNL     1       6.778  54.740  39.590  1.00  0.00     0.175 HD
ATOM     11  H   UNL     1       4.166  55.680  42.632  1.00  0.00     0.171 HD
ENDROOT
TORSDOF 0
ENDMDL
MODEL 14
REMARK VINA RESULT:    -7.946      3.724      6.209
REMARK INTER + INTRA:         -14.889
REMARK INTER:                 -13.583
REMARK INTRA:                  -1.307
REMARK UNBOUND:                -2.066
REMARK SMILES O=P(O)(O)OC[C@H]1O[C@H](O[P@@](=O)(O)OP(=O)(O)O)[C@H](O)[C@@H]1O
REMARK SMILES IDX 8 1 21 2 7 3 19 4 9 5 10 6 11 7 12 8 14 9 15 10 16 11 17 12
REMARK SMILES IDX 18 14 13 16 20 18 6 20 5 21 2 22 1 23 3 24 4 26 22 28
REMARK H PARENT 17 13 18 15 13 17 20 19 3 25 4 27 22 29
REMARK Flexibility Score: inf
ROOT
ATOM      1  O   UNL     1      -2.450  60.663  36.002  1.00  0.00    -0.341 OA
ATOM      2  C   UNL     1      -3.264  61.332  38.122  1.00  0.00     0.179 C 
ATOM      3  C   UNL     1      -2.146  60.582  37.409  1.00  0.00     0.179 C 
ATOM      4  C   UNL     1      -3.591  62.411  37.114  1.00  0.00     0.202 C 
ATOM      5  C   UNL     1      -3.521  61.609  35.822  1.00  0.00     0.293 C 
ENDROOT
BRANCH   5   6
ATOM      6  O   UNL     1      -3.322  62.457  34.705  1.00  0.00    -0.253 OA
BRANCH   6   7
ATOM      7  P   UNL     1      -4.337  62.388  33.446  1.00  0.00     0.483 P 
ATOM      8  O   UNL     1      -4.480  63.673  32.682  1.00  0.00    -0.228 OA
BRANCH   7   9
ATOM      9  O   UNL     1      -5.721  61.831  34.069  1.00  0.00    -0.185 OA
BRANCH   9  10
ATOM     10  P   UNL     1      -6.991  62.608  34.694  1.00  0.00     0.478 P 
ATOM     11  O   UNL     1      -6.961  62.760  36.186  1.00  0.00    -0.228 OA
BRANCH  10  12
ATOM     12  O   UNL     1      -8.251  61.781  34.111  1.00  0.00    -0.302 OA
ATOM     13  H   UNL     1      -9.119  62.231  34.033  1.00  0.00     0.223 HD
ENDBRANCH  10  12
BRANCH  10  14
ATOM     14  O   UNL     1      -7.030  63.992  33.859  1.00  0.00    -0.302 OA
ATOM     15  H   UNL     1      -6.397  64.118  33.120  1.00  0.00     0.223 HD
ENDBRANCH  10  14
ENDBRANCH   9  10
ENDBRANCH   7   9
BRANCH   7  16
ATOM     16  O   UNL     1      -3.800  61.144  32.563  1.00  0.00    -0.302 OA
ATOM     17  H   UNL     1      -4.097  60.237  32.791  1.00  0.00     0.223 HD
ENDBRANCH   7  16
ENDBRANCH   6   7
ENDBRANCH   5   6
BRANCH   4  18
ATOM     18  O   UNL     1      -2.573  63.409  37.133  1.00  0.00    -0.385 OA
ATOM     19  H   UNL     1      -1.875  63.137  37.752  1.00  0.00     0.211 HD
ENDBRANCH   4  18
BRANCH   3  20
ATOM     20  C   UNL     1      -2.040  59.125  37.825  1.00  0.00     0.208 C 
BRANCH  20  21
ATOM     21  O   UNL     1      -3.147  58.804  38.651  1.00  0.00    -0.284 OA
BRANCH  21  22
ATOM     22  P   UNL     1      -2.861  58.189  40.120  1.00  0.00     0.469 P 
ATOM     23  O   UNL     1      -2.195  56.844  40.126  1.00  0.00    -0.228 OA
BRANCH  22  24
ATOM     24  O   UNL     1      -4.302  58.249  40.850  1.00  0.00    -0.303 OA
ATOM     25  H   UNL     1      -4.406  57.834  41.733  1.00  0.00     0.223 HD
ENDBRANCH  22  24
BRANCH  22  26
ATOM     26  O   UNL     1      -2.025  59.367  40.847  1.00  0.00    -0.303 OA
ATOM     27  H   UNL     1      -2.489  60.195  41.094  1.00  0.00     0.223 HD
ENDBRANCH  22  26
ENDBRANCH  21  22
ENDBRANCH  20  21
ENDBRANCH   3  20
BRANCH   2  28
ATOM     28  O   UNL     1      -2.847  61.838  39.371  1.00  0.00    -0.387 OA
ATOM     29  H   UNL     1      -3.171  62.751  39.444  1.00  0.00     0.211 HD
ENDBRANCH   2  28
TORSDOF 14
REMARK SMILES O=c1[nH]cc(F)c(=O)[nH]1
REMARK SMILES IDX 6 1 8 2 1 3 9 4 3 5 7 6 2 7 5 8 4 9
REMARK H PARENT 9 10 3 11
REMARK Flexibility Score: inf
ROOT
ATOM      1  F   UNL     1      -4.313  62.341  44.673  1.00  0.00    -0.199 F 
ATOM      2  O   UNL     1      -3.805  60.239  43.019  1.00  0.00    -0.266 OA
ATOM      3  O   UNL     1      -6.472  62.110  39.728  1.00  0.00    -0.248 OA
ATOM      4  N   UNL     1      -5.137  61.155  41.354  1.00  0.00    -0.272 N 
ATOM      5  N   UNL     1      -6.207  63.208  41.736  1.00  0.00    -0.311 N 
ATOM      6  C   UNL     1      -4.539  61.133  42.610  1.00  0.00     0.289 A 
ATOM      7  C   UNL     1      -5.978  62.157  40.855  1.00  0.00     0.325 A 
ATOM      8  C   UNL     1      -4.863  62.305  43.446  1.00  0.00     0.204 A 
ATOM      9  C   UNL     1      -5.661  63.268  42.989  1.00  0.00     0.132 A 
ATOM     10  H   UNL     1      -4.945  60.369  40.739  1.00  0.00     0.175 HD
ATOM     11  H   UNL     1      -6.809  63.973  41.444  1.00  0.00     0.171 HD
ENDROOT
TORSDOF 0
ENDMDL
MODEL 15
REMARK VINA RESULT:    -7.929      3.792      6.423
REMARK INTER + INTRA:         -14.862
REMARK INTER:                 -13.221
REMARK INTRA:                  -1.642
REMARK UNBOUND:                -2.066
REMARK SMILES O=P(O)(O)OC[C@H]1O[C@H](O[P@@](=O)(O)OP(=O)(O)O)[C@H](O)[C@@H]1O
REMARK SMILES IDX 8 1 21 2 7 3 19 4 9 5 10 6 11 7 12 8 14 9 15 10 16 11 17 12
REMARK SMILES IDX 18 14 13 16 20 18 6 20 5 21 2 22 1 23 3 24 4 26 22 28
REMARK H PARENT 17 13 18 15 13 17 20 19 3 25 4 27 22 29
REMARK Flexibility Score: inf
ROOT
ATOM      1  O   UNL     1      -2.345  59.590  36.974  1.00  0.00    -0.341 OA
ATOM      2  C   UNL     1      -3.520  58.345  38.608  1.00  0.00     0.179 C 
ATOM      3  C   UNL     1      -2.236  59.115  38.330  1.00  0.00     0.179 C 
ATOM      4  C   UNL     1      -4.520  59.117  37.776  1.00  0.00     0.202 C 
ATOM      5  C   UNL     1      -3.695  59.367  36.521  1.00  0.00     0.293 C 
ENDROOT
BRANCH   5   6
ATOM      6  O   UNL     1      -4.211  60.458  35.780  1.00  0.00    -0.253 OA
BRANCH   6   7
ATOM      7  P   UNL     1      -3.386  61.848  35.702  1.00  0.00     0.483 P 
ATOM      8  O   UNL     1      -3.254  62.576  37.009  1.00  0.00    -0.228 OA
BRANCH   7   9
ATOM      9  O   UNL     1      -4.130  62.697  34.543  1.00  0.00    -0.185 OA
BRANCH   9  10
ATOM     10  P   UNL     1      -3.616  63.185  33.092  1.00  0.00     0.478 P 
ATOM     11  O   UNL     1      -2.430  64.103  33.123  1.00  0.00    -0.228 OA
BRANCH  10  12
ATOM     12  O   UNL     1      -4.949  63.804  32.420  1.00  0.00    -0.302 OA
ATOM     13  H   UNL     1      -4.900  64.685  31.991  1.00  0.00     0.223 HD
ENDBRANCH  10  12
BRANCH  10  14
ATOM     14  O   UNL     1      -3.397  61.800  32.288  1.00  0.00    -0.302 OA
ATOM     15  H   UNL     1      -4.181  61.257  32.056  1.00  0.00     0.223 HD
ENDBRANCH  10  14
ENDBRANCH   9  10
ENDBRANCH   7   9
BRANCH   7  16
ATOM     16  O   UNL     1      -1.977  61.443  35.019  1.00  0.00    -0.302 OA
ATOM     17  H   UNL     1      -1.224  61.196  35.597  1.00  0.00     0.223 HD
ENDBRANCH   7  16
ENDBRANCH   6   7
ENDBRANCH   5   6
BRANCH   4  18
ATOM     18  O   UNL     1      -4.828  60.352  38.420  1.00  0.00    -0.385 OA
ATOM     19  H   UNL     1      -4.282  61.055  38.031  1.00  0.00     0.211 HD
ENDBRANCH   4  18
BRANCH   3  20
ATOM     20  C   UNL     1      -0.984  58.268  38.475  1.00  0.00     0.208 C 
BRANCH  20  21
ATOM     21  O   UNL     1      -1.329  57.049  39.113  1.00  0.00    -0.284 OA
BRANCH  21  22
ATOM     22  P   UNL     1      -0.600  56.677  40.509  1.00  0.00     0.469 P 
ATOM     23  O   UNL     1      -0.459  55.207  40.779  1.00  0.00    -0.228 OA
BRANCH  22  24
ATOM     24  O   UNL     1      -1.440  57.505  41.614  1.00  0.00    -0.303 OA
ATOM     25  H   UNL     1      -1.084  57.577  42.526  1.00  0.00     0.223 HD
ENDBRANCH  22  24
BRANCH  22  26
ATOM     26  O   UNL     1       0.795  57.490  40.416  1.00  0.00    -0.303 OA
ATOM     27  H   UNL     1       1.268  57.718  41.244  1.00  0.00     0.223 HD
ENDBRANCH  22  26
ENDBRANCH  21  22
ENDBRANCH  20  21
ENDBRANCH   3  20
BRANCH   2  28
ATOM     28  O   UNL     1      -3.834  58.321  39.984  1.00  0.00    -0.387 OA
ATOM     29  H   UNL     1      -3.416  57.532  40.369  1.00  0.00     0.211 HD
ENDBRANCH   2  28
TORSDOF 14
REMARK SMILES O=c1[nH]cc(F)c(=O)[nH]1
REMARK SMILES IDX 6 1 8 2 1 3 9 4 3 5 7 6 2 7 5 8 4 9
REMARK H PARENT 9 10 3 11
REMARK Flexibility Score: inf
ROOT
ATOM      1  F   UNL     1      -6.348  63.926  42.669  1.00  0.00    -0.199 F 
ATOM      2  O   UNL     1      -5.797  62.720  40.291  1.00  0.00    -0.266 OA
ATOM      3  O   UNL     1      -3.100  59.618  42.424  1.00  0.00    -0.248 OA
ATOM      4  N   UNL     1      -4.440  61.155  41.336  1.00  0.00    -0.272 N 
ATOM      5  N   UNL     1      -4.152  61.252  43.663  1.00  0.00    -0.311 N 
ATOM      6  C   UNL     1      -5.287  62.258  41.306  1.00  0.00     0.289 A 
ATOM      7  C   UNL     1      -3.841  60.602  42.474  1.00  0.00     0.325 A 
ATOM      8  C   UNL     1      -5.536  62.855  42.633  1.00  0.00     0.204 A 
ATOM      9  C   UNL     1      -4.975  62.343  43.727  1.00  0.00     0.132 A 
ATOM     10  H   UNL     1      -4.236  60.707  40.446  1.00  0.00     0.175 HD
ATOM     11  H   UNL     1      -3.754  60.907  44.532  1.00  0.00     0.171 HD
ENDROOT
TORSDOF 0
ENDMDL
MODEL 16
REMARK VINA RESULT:    -7.899      3.422      6.399
REMARK INTER + INTRA:         -14.814
REMARK INTER:                 -13.325
REMARK INTRA:                  -1.489
REMARK UNBOUND:                -2.066
REMARK SMILES O=P(O)(O)OC[C@H]1O[C@H](O[P@@](=O)(O)OP(=O)(O)O)[C@H](O)[C@@H]1O
REMARK SMILES IDX 8 1 21 2 7 3 19 4 9 5 10 6 11 7 12 8 14 9 15 10 16 11 17 12
REMARK SMILES IDX 18 14 13 16 20 18 6 20 5 21 2 22 1 23 3 24 4 26 22 28
REMARK H PARENT 17 13 18 15 13 17 20 19 3 25 4 27 22 29
REMARK Flexibility Score: inf
ROOT
ATOM      1  O   UNL     1      -5.329  62.568  37.088  1.00  0.00    -0.341 OA
ATOM      2  C   UNL     1      -3.235  61.491  37.332  1.00  0.00     0.179 C 
ATOM      3  C   UNL     1      -4.057  62.406  36.432  1.00  0.00     0.179 C 
ATOM      4  C   UNL     1      -3.739  61.889  38.702  1.00  0.00     0.202 C 
ATOM      5  C   UNL     1      -5.229  62.022  38.417  1.00  0.00     0.293 C 
ENDROOT
BRANCH   5   6
ATOM      6  O   UNL     1      -5.864  62.830  39.392  1.00  0.00    -0.253 OA
BRANCH   6   7
ATOM      7  P   UNL     1      -7.081  62.230  40.274  1.00  0.00     0.483 P 
ATOM      8  O   UNL     1      -8.444  62.726  39.886  1.00  0.00    -0.228 OA
BRANCH   7   9
ATOM      9  O   UNL     1      -6.670  62.551  41.804  1.00  0.00    -0.185 OA
BRANCH   9  10
ATOM     10  P   UNL     1      -5.227  62.577  42.531  1.00  0.00     0.478 P 
ATOM     11  O   UNL     1      -5.281  62.700  44.025  1.00  0.00    -0.228 OA
BRANCH  10  12
ATOM     12  O   UNL     1      -4.453  63.772  41.767  1.00  0.00    -0.302 OA
ATOM     13  H   UNL     1      -4.697  64.701  41.969  1.00  0.00     0.223 HD
ENDBRANCH  10  12
BRANCH  10  14
ATOM     14  O   UNL     1      -4.505  61.243  41.974  1.00  0.00    -0.302 OA
ATOM     15  H   UNL     1      -4.621  60.998  41.031  1.00  0.00     0.223 HD
ENDBRANCH  10  14
ENDBRANCH   9  10
ENDBRANCH   7   9
BRANCH   7  16
ATOM     16  O   UNL     1      -6.900  60.626  40.170  1.00  0.00    -0.302 OA
ATOM     17  H   UNL     1      -7.701  60.059  40.136  1.00  0.00     0.223 HD
ENDBRANCH   7  16
ENDBRANCH   6   7
ENDBRANCH   5   6
BRANCH   4  18
ATOM     18  O   UNL     1      -3.190  63.153  39.067  1.00  0.00    -0.385 OA
ATOM     19  H   UNL     1      -3.881  63.686  39.494  1.00  0.00     0.211 HD
ENDBRANCH   4  18
BRANCH   3  20
ATOM     20  C   UNL     1      -4.269  61.841  35.038  1.00  0.00     0.208 C 
BRANCH  20  21
ATOM     21  O   UNL     1      -3.259  62.348  34.181  1.00  0.00    -0.284 OA
BRANCH  21  22
ATOM     22  P   UNL     1      -3.701  62.987  32.762  1.00  0.00     0.469 P 
ATOM     23  O   UNL     1      -3.756  62.017  31.618  1.00  0.00    -0.228 OA
BRANCH  22  24
ATOM     24  O   UNL     1      -2.686  64.229  32.567  1.00  0.00    -0.303 OA
ATOM     25  H   UNL     1      -1.721  64.053  32.522  1.00  0.00     0.223 HD
ENDBRANCH  22  24
BRANCH  22  26
ATOM     26  O   UNL     1      -5.106  63.707  33.113  1.00  0.00    -0.303 OA
ATOM     27  H   UNL     1      -5.777  63.211  33.629  1.00  0.00     0.223 HD
ENDBRANCH  22  26
ENDBRANCH  21  22
ENDBRANCH  20  21
ENDBRANCH   3  20
BRANCH   2  28
ATOM     28  O   UNL     1      -1.849  61.691  37.164  1.00  0.00    -0.387 OA
ATOM     29  H   UNL     1      -1.397  60.874  37.436  1.00  0.00     0.211 HD
ENDBRANCH   2  28
TORSDOF 14
REMARK SMILES O=c1[nH]cc(F)c(=O)[nH]1
REMARK SMILES IDX 6 1 8 2 1 3 9 4 3 5 7 6 2 7 5 8 4 9
REMARK H PARENT 9 10 3 11
REMARK Flexibility Score: inf
ROOT
ATOM      1  F   UNL     1       1.161  57.302  38.088  1.00  0.00    -0.199 F 
ATOM      2  O   UNL     1      -0.850  58.940  37.260  1.00  0.00    -0.266 OA
ATOM      3  O   UNL     1      -2.877  58.645  41.413  1.00  0.00    -0.248 OA
ATOM      4  N   UNL     1      -1.886  58.807  39.332  1.00  0.00    -0.272 N 
ATOM      5  N   UNL     1      -0.910  57.509  41.026  1.00  0.00    -0.311 N 
ATOM      6  C   UNL     1      -0.886  58.515  38.410  1.00  0.00     0.289 A 
ATOM      7  C   UNL     1      -1.959  58.341  40.650  1.00  0.00     0.325 A 
ATOM      8  C   UNL     1       0.166  57.622  38.934  1.00  0.00     0.204 A 
ATOM      9  C   UNL     1       0.113  57.168  40.185  1.00  0.00     0.132 A 
ATOM     10  H   UNL     1      -2.635  59.419  39.020  1.00  0.00     0.175 HD
ATOM     11  H   UNL     1      -0.895  57.131  41.969  1.00  0.00     0.171 HD
ENDROOT
TORSDOF 0
ENDMDL
MODEL 17
REMARK VINA RESULT:    -7.895      3.291      6.125
REMARK INTER + INTRA:         -14.808
REMARK INTER:                 -13.682
REMARK INTRA:                  -1.125
REMARK UNBOUND:                -2.066
REMARK SMILES O=P(O)(O)OC[C@H]1O[C@H](O[P@@](=O)(O)OP(=O)(O)O)[C@H](O)[C@@H]1O
REMARK SMILES IDX 8 1 21 2 7 3 19 4 9 5 10 6 11 7 12 8 14 9 15 10 16 11 17 12
REMARK SMILES IDX 18 14 13 16 20 18 6 20 5 21 2 22 1 23 3 24 4 26 22 28
REMARK H PARENT 17 13 18 15 13 17 20 19 3 25 4 27 22 29
REMARK Flexibility Score: inf
ROOT
ATOM      1  O   UNL     1      -4.431  61.564  36.504  1.00  0.00    -0.341 OA
ATOM      2  C   UNL     1      -2.490  60.211  36.438  1.00  0.00     0.179 C 
ATOM      3  C   UNL     1      -3.011  61.633  36.270  1.00  0.00     0.179 C 
ATOM      4  C   UNL     1      -3.418  59.675  37.505  1.00  0.00     0.202 C 
ATOM      5  C   UNL     1      -4.742  60.261  37.035  1.00  0.00     0.293 C 
ENDROOT
BRANCH   5   6
ATOM      6  O   UNL     1      -5.683  60.311  38.094  1.00  0.00    -0.253 OA
BRANCH   6   7
ATOM      7  P   UNL     1      -7.219  59.874  37.833  1.00  0.00     0.483 P 
ATOM      8  O   UNL     1      -7.397  58.475  37.317  1.00  0.00    -0.228 OA
BRANCH   7   9
ATOM      9  O   UNL     1      -7.806  61.021  36.855  1.00  0.00    -0.185 OA
BRANCH   9  10
ATOM     10  P   UNL     1      -7.614  61.262  35.270  1.00  0.00     0.478 P 
ATOM     11  O   UNL     1      -6.909  60.153  34.547  1.00  0.00    -0.228 OA
BRANCH  10  12
ATOM     12  O   UNL     1      -6.881  62.702  35.205  1.00  0.00    -0.302 OA
ATOM     13  H   UNL     1      -7.262  63.451  35.711  1.00  0.00     0.223 HD
ENDBRANCH  10  12
BRANCH  10  14
ATOM     14  O   UNL     1      -9.113  61.579  34.756  1.00  0.00    -0.302 OA
ATOM     15  H   UNL     1      -9.293  62.437  34.315  1.00  0.00     0.223 HD
ENDBRANCH  10  14
ENDBRANCH   9  10
ENDBRANCH   7   9
BRANCH   7  16
ATOM     16  O   UNL     1      -7.965  60.167  39.238  1.00  0.00    -0.302 OA
ATOM     17  H   UNL     1      -8.940  60.064  39.288  1.00  0.00     0.223 HD
ENDBRANCH   7  16
ENDBRANCH   6   7
ENDBRANCH   5   6
BRANCH   4  18
ATOM     18  O   UNL     1      -3.057  60.221  38.772  1.00  0.00    -0.385 OA
ATOM     19  H   UNL     1      -3.360  61.144  38.816  1.00  0.00     0.211 HD
ENDBRANCH   4  18
BRANCH   3  20
ATOM     20  C   UNL     1      -2.748  62.209  34.891  1.00  0.00     0.208 C 
BRANCH  20  21
ATOM     21  O   UNL     1      -3.970  62.685  34.353  1.00  0.00    -0.284 OA
BRANCH  21  22
ATOM     22  P   UNL     1      -4.016  63.095  32.788  1.00  0.00     0.469 P 
ATOM     23  O   UNL     1      -3.752  61.971  31.829  1.00  0.00    -0.228 OA
BRANCH  22  24
ATOM     24  O   UNL     1      -2.995  64.344  32.687  1.00  0.00    -0.303 OA
ATOM     25  H   UNL     1      -2.488  64.609  33.485  1.00  0.00     0.223 HD
ENDBRANCH  22  24
BRANCH  22  26
ATOM     26  O   UNL     1      -5.470  63.789  32.640  1.00  0.00    -0.303 OA
ATOM     27  H   UNL     1      -6.099  63.736  33.390  1.00  0.00     0.223 HD
ENDBRANCH  22  26
ENDBRANCH  21  22
ENDBRANCH  20  21
ENDBRANCH   3  20
BRANCH   2  28
ATOM     28  O   UNL     1      -1.130  60.187  36.812  1.00  0.00    -0.387 OA
ATOM     29  H   UNL     1      -0.739  59.371  36.456  1.00  0.00     0.211 HD
ENDBRANCH   2  28
TORSDOF 14
REMARK SMILES O=c1[nH]cc(F)c(=O)[nH]1
REMARK SMILES IDX 6 1 8 2 1 3 9 4 3 5 7 6 2 7 5 8 4 9
REMARK H PARENT 9 10 3 11
REMARK Flexibility Score: inf
ROOT
ATOM      1  F   UNL     1      -4.269  62.159  41.803  1.00  0.00    -0.199 F 
ATOM      2  O   UNL     1      -3.236  63.043  39.445  1.00  0.00    -0.266 OA
ATOM      3  O   UNL     1      -7.479  64.091  37.914  1.00  0.00    -0.248 OA
ATOM      4  N   UNL     1      -5.351  63.576  38.654  1.00  0.00    -0.272 N 
ATOM      5  N   UNL     1      -7.221  63.187  40.018  1.00  0.00    -0.311 N 
ATOM      6  C   UNL     1      -4.452  63.095  39.600  1.00  0.00     0.289 A 
ATOM      7  C   UNL     1      -6.742  63.650  38.797  1.00  0.00     0.325 A 
ATOM      8  C   UNL     1      -5.088  62.635  40.849  1.00  0.00     0.204 A 
ATOM      9  C   UNL     1      -6.409  62.697  41.004  1.00  0.00     0.132 A 
ATOM     10  H   UNL     1      -4.962  63.905  37.774  1.00  0.00     0.175 HD
ATOM     11  H   UNL     1      -8.221  63.210  40.194  1.00  0.00     0.171 HD
ENDROOT
TORSDOF 0
ENDMDL
MODEL 18
REMARK VINA RESULT:    -7.884      3.213      5.949
REMARK INTER + INTRA:         -14.789
REMARK INTER:                 -13.305
REMARK INTRA:                  -1.484
REMARK UNBOUND:                -2.066
REMARK SMILES O=P(O)(O)OC[C@H]1O[C@H](O[P@@](=O)(O)OP(=O)(O)O)[C@H](O)[C@@H]1O
REMARK SMILES IDX 8 1 21 2 7 3 19 4 9 5 10 6 11 7 12 8 14 9 15 10 16 11 17 12
REMARK SMILES IDX 18 14 13 16 20 18 6 20 5 21 2 22 1 23 3 24 4 26 22 28
REMARK H PARENT 17 13 18 15 13 17 20 19 3 25 4 27 22 29
REMARK Flexibility Score: inf
ROOT
ATOM      1  O   UNL     1      -4.558  60.156  37.213  1.00  0.00    -0.341 OA
ATOM      2  C   UNL     1      -2.700  60.137  35.747  1.00  0.00     0.179 C 
ATOM      3  C   UNL     1      -3.735  61.031  36.419  1.00  0.00     0.179 C 
ATOM      4  C   UNL     1      -2.498  59.069  36.800  1.00  0.00     0.202 C 
ATOM      5  C   UNL     1      -3.936  58.857  37.253  1.00  0.00     0.293 C 
ENDROOT
BRANCH   5   6
ATOM      6  O   UNL     1      -3.984  58.265  38.539  1.00  0.00    -0.253 OA
BRANCH   6   7
ATOM      7  P   UNL     1      -5.034  58.809  39.643  1.00  0.00     0.483 P 
ATOM      8  O   UNL     1      -6.426  59.039  39.129  1.00  0.00    -0.228 OA
BRANCH   7   9
ATOM      9  O   UNL     1      -4.329  60.128  40.258  1.00  0.00    -0.185 OA
BRANCH   9  10
ATOM     10  P   UNL     1      -3.148  60.289  41.348  1.00  0.00     0.478 P 
ATOM     11  O   UNL     1      -3.567  60.040  42.767  1.00  0.00    -0.228 OA
BRANCH  10  12
ATOM     12  O   UNL     1      -2.571  61.769  41.048  1.00  0.00    -0.302 OA
ATOM     13  H   UNL     1      -3.172  62.444  40.667  1.00  0.00     0.223 HD
ENDBRANCH  10  12
BRANCH  10  14
ATOM     14  O   UNL     1      -1.989  59.312  40.789  1.00  0.00    -0.302 OA
ATOM     15  H   UNL     1      -1.418  58.837  41.429  1.00  0.00     0.223 HD
ENDBRANCH  10  14
ENDBRANCH   9  10
ENDBRANCH   7   9
BRANCH   7  16
ATOM     16  O   UNL     1      -4.938  57.739  40.853  1.00  0.00    -0.302 OA
ATOM     17  H   UNL     1      -4.263  57.029  40.804  1.00  0.00     0.223 HD
ENDBRANCH   7  16
ENDBRANCH   6   7
ENDBRANCH   5   6
BRANCH   4  18
ATOM     18  O   UNL     1      -1.714  59.594  37.870  1.00  0.00    -0.385 OA
ATOM     19  H   UNL     1      -2.261  59.631  38.672  1.00  0.00     0.211 HD
ENDBRANCH   4  18
BRANCH   3  20
ATOM     20  C   UNL     1      -4.602  61.791  35.431  1.00  0.00     0.208 C 
BRANCH  20  21
ATOM     21  O   UNL     1      -4.240  61.408  34.115  1.00  0.00    -0.284 OA
BRANCH  21  22
ATOM     22  P   UNL     1      -3.873  62.568  33.047  1.00  0.00     0.469 P 
ATOM     23  O   UNL     1      -4.791  63.755  33.059  1.00  0.00    -0.228 OA
BRANCH  22  24
ATOM     24  O   UNL     1      -3.782  61.779  31.639  1.00  0.00    -0.303 OA
ATOM     25  H   UNL     1      -3.110  62.058  30.980  1.00  0.00     0.223 HD
ENDBRANCH  22  24
BRANCH  22  26
ATOM     26  O   UNL     1      -2.327  62.897  33.390  1.00  0.00    -0.303 OA
ATOM     27  H   UNL     1      -2.126  63.545  34.099  1.00  0.00     0.223 HD
ENDBRANCH  22  26
ENDBRANCH  21  22
ENDBRANCH  20  21
ENDBRANCH   3  20
BRANCH   2  28
ATOM     28  O   UNL     1      -1.521  60.842  35.428  1.00  0.00    -0.387 OA
ATOM     29  H   UNL     1      -1.374  60.756  34.470  1.00  0.00     0.211 HD
ENDBRANCH   2  28
TORSDOF 14
REMARK SMILES O=c1[nH]cc(F)c(=O)[nH]1
REMARK SMILES IDX 6 1 8 2 1 3 9 4 3 5 7 6 2 7 5 8 4 9
REMARK H PARENT 9 10 3 11
REMARK Flexibility Score: inf
ROOT
ATOM      1  F   UNL     1      -8.571  61.642  40.933  1.00  0.00    -0.199 F 
ATOM      2  O   UNL     1      -8.469  61.831  38.220  1.00  0.00    -0.266 OA
ATOM      3  O   UNL     1      -4.276  63.782  38.456  1.00  0.00    -0.248 OA
ATOM      4  N   UNL     1      -6.368  62.811  38.311  1.00  0.00    -0.272 N 
ATOM      5  N   UNL     1      -5.358  63.176  40.398  1.00  0.00    -0.311 N 
ATOM      6  C   UNL     1      -7.512  62.246  38.865  1.00  0.00     0.289 A 
ATOM      7  C   UNL     1      -5.259  63.293  39.016  1.00  0.00     0.325 A 
ATOM      8  C   UNL     1      -7.491  62.180  40.339  1.00  0.00     0.204 A 
ATOM      9  C   UNL     1      -6.446  62.634  41.027  1.00  0.00     0.132 A 
ATOM     10  H   UNL     1      -6.333  62.880  37.297  1.00  0.00     0.175 HD
ATOM     11  H   UNL     1      -4.591  63.505  40.976  1.00  0.00     0.171 HD
ENDROOT
TORSDOF 0
ENDMDL
MODEL 19
REMARK VINA RESULT:    -7.879      1.986      2.714
REMARK INTER + INTRA:         -14.782
REMARK INTER:                 -13.097
REMARK INTRA:                  -1.685
REMARK UNBOUND:                -2.066
REMARK SMILES O=P(O)(O)OC[C@H]1O[C@H](O[P@@](=O)(O)OP(=O)(O)O)[C@H](O)[C@@H]1O
REMARK SMILES IDX 8 1 21 2 7 3 19 4 9 5 10 6 11 7 12 8 14 9 15 10 16 11 17 12
REMARK SMILES IDX 18 14 13 16 20 18 6 20 5 21 2 22 1 23 3 24 4 26 22 28
REMARK H PARENT 17 13 18 15 13 17 20 19 3 25 4 27 22 29
REMARK Flexibility Score: inf
ROOT
ATOM      1  O   UNL     1      -3.625  60.812  38.909  1.00  0.00    -0.341 OA
ATOM      2  C   UNL     1      -2.199  61.234  37.067  1.00  0.00     0.179 C 
ATOM      3  C   UNL     1      -3.300  60.322  37.593  1.00  0.00     0.179 C 
ATOM      4  C   UNL     1      -2.574  62.555  37.703  1.00  0.00     0.202 C 
ATOM      5  C   UNL     1      -2.975  62.084  39.094  1.00  0.00     0.293 C 
ENDROOT
BRANCH   5   6
ATOM      6  O   UNL     1      -3.805  63.036  39.736  1.00  0.00    -0.253 OA
BRANCH   6   7
ATOM      7  P   UNL     1      -4.608  62.633  41.082  1.00  0.00     0.483 P 
ATOM      8  O   UNL     1      -4.231  61.303  41.666  1.00  0.00    -0.228 OA
BRANCH   7   9
ATOM      9  O   UNL     1      -6.168  62.761  40.677  1.00  0.00    -0.185 OA
BRANCH   9  10
ATOM     10  P   UNL     1      -6.878  62.955  39.238  1.00  0.00     0.478 P 
ATOM     11  O   UNL     1      -8.375  63.034  39.284  1.00  0.00    -0.228 OA
BRANCH  10  12
ATOM     12  O   UNL     1      -6.277  61.734  38.366  1.00  0.00    -0.302 OA
ATOM     13  H   UNL     1      -5.794  61.015  38.825  1.00  0.00     0.223 HD
ENDBRANCH  10  12
BRANCH  10  14
ATOM     14  O   UNL     1      -6.135  64.255  38.629  1.00  0.00    -0.302 OA
ATOM     15  H   UNL     1      -5.229  64.158  38.266  1.00  0.00     0.223 HD
ENDBRANCH  10  14
ENDBRANCH   9  10
ENDBRANCH   7   9
BRANCH   7  16
ATOM     16  O   UNL     1      -4.380  63.888  42.077  1.00  0.00    -0.302 OA
ATOM     17  H   UNL     1      -5.137  64.480  42.276  1.00  0.00     0.223 HD
ENDBRANCH   7  16
ENDBRANCH   6   7
ENDBRANCH   5   6
BRANCH   4  18
ATOM     18  O   UNL     1      -3.700  63.110  37.025  1.00  0.00    -0.385 OA
ATOM     19  H   UNL     1      -3.478  63.224  36.086  1.00  0.00     0.211 HD
ENDBRANCH   4  18
BRANCH   3  20
ATOM     20  C   UNL     1      -2.882  58.865  37.678  1.00  0.00     0.208 C 
BRANCH  20  21
ATOM     21  O   UNL     1      -2.818  58.330  36.367  1.00  0.00    -0.284 OA
BRANCH  21  22
ATOM     22  P   UNL     1      -3.782  57.085  35.994  1.00  0.00     0.469 P 
ATOM     23  O   UNL     1      -3.449  55.795  36.685  1.00  0.00    -0.228 OA
BRANCH  22  24
ATOM     24  O   UNL     1      -3.737  57.035  34.379  1.00  0.00    -0.303 OA
ATOM     25  H   UNL     1      -3.151  56.382  33.939  1.00  0.00     0.223 HD
ENDBRANCH  22  24
BRANCH  22  26
ATOM     26  O   UNL     1      -5.258  57.666  36.308  1.00  0.00    -0.303 OA
ATOM     27  H   UNL     1      -5.685  57.441  37.161  1.00  0.00     0.223 HD
ENDBRANCH  22  26
ENDBRANCH  21  22
ENDBRANCH  20  21
ENDBRANCH   3  20
BRANCH   2  28
ATOM     28  O   UNL     1      -2.176  61.277  35.657  1.00  0.00    -0.387 OA
ATOM     29  H   UNL     1      -2.000  62.195  35.391  1.00  0.00     0.211 HD
ENDBRANCH   2  28
TORSDOF 14
REMARK SMILES O=c1[nH]cc(F)c(=O)[nH]1
REMARK SMILES IDX 6 1 8 2 1 3 9 4 3 5 7 6 2 7 5 8 4 9
REMARK H PARENT 9 10 3 11
REMARK Flexibility Score: inf
ROOT
ATOM      1  F   UNL     1      -3.374  62.066  31.679  1.00  0.00    -0.199 F 
ATOM      2  O   UNL     1      -4.811  63.877  33.116  1.00  0.00    -0.266 OA
ATOM      3  O   UNL     1      -6.307  60.532  35.947  1.00  0.00    -0.248 OA
ATOM      4  N   UNL     1      -5.576  62.219  34.547  1.00  0.00    -0.272 N 
ATOM      5  N   UNL     1      -4.891  60.000  34.208  1.00  0.00    -0.311 N 
ATOM      6  C   UNL     1      -4.849  62.702  33.464  1.00  0.00     0.289 A 
ATOM      7  C   UNL     1      -5.641  60.887  34.973  1.00  0.00     0.325 A 
ATOM      8  C   UNL     1      -4.098  61.660  32.737  1.00  0.00     0.204 A 
ATOM      9  C   UNL     1      -4.148  60.388  33.126  1.00  0.00     0.132 A 
ATOM     10  H   UNL     1      -6.111  62.898  35.082  1.00  0.00     0.175 HD
ATOM     11  H   UNL     1      -4.890  59.015  34.456  1.00  0.00     0.171 HD
ENDROOT
TORSDOF 0
ENDMDL
MODEL 20
REMARK VINA RESULT:    -7.813      2.883      5.017
REMARK INTER + INTRA:         -14.675
REMARK INTER:                 -13.310
REMARK INTRA:                  -1.366
REMARK UNBOUND:                -2.066
REMARK SMILES O=P(O)(O)OC[C@H]1O[C@H](O[P@@](=O)(O)OP(=O)(O)O)[C@H](O)[C@@H]1O
REMARK SMILES IDX 8 1 21 2 7 3 19 4 9 5 10 6 11 7 12 8 14 9 15 10 16 11 17 12
REMARK SMILES IDX 18 14 13 16 20 18 6 20 5 21 2 22 1 23 3 24 4 26 22 28
REMARK H PARENT 17 13 18 15 13 17 20 19 3 25 4 27 22 29
REMARK Flexibility Score: inf
ROOT
ATOM      1  O   UNL     1      -6.072  61.057  38.289  1.00  0.00    -0.341 OA
ATOM      2  C   UNL     1      -6.779  62.539  39.994  1.00  0.00     0.179 C 
ATOM      3  C   UNL     1      -5.881  61.347  39.688  1.00  0.00     0.179 C 
ATOM      4  C   UNL     1      -6.733  63.293  38.683  1.00  0.00     0.202 C 
ATOM      5  C   UNL     1      -6.821  62.136  37.699  1.00  0.00     0.293 C 
ENDROOT
BRANCH   5   6
ATOM      6  O   UNL     1      -6.330  62.512  36.424  1.00  0.00    -0.253 OA
BRANCH   6   7
ATOM      7  P   UNL     1      -7.194  62.186  35.095  1.00  0.00     0.483 P 
ATOM      8  O   UNL     1      -8.544  61.582  35.354  1.00  0.00    -0.228 OA
BRANCH   7   9
ATOM      9  O   UNL     1      -6.218  61.266  34.192  1.00  0.00    -0.185 OA
BRANCH   9  10
ATOM     10  P   UNL     1      -5.802  59.711  34.327  1.00  0.00     0.478 P 
ATOM     11  O   UNL     1      -6.873  58.739  33.928  1.00  0.00    -0.228 OA
BRANCH  10  12
ATOM     12  O   UNL     1      -5.304  59.597  35.860  1.00  0.00    -0.302 OA
ATOM     13  H   UNL     1      -5.792  60.087  36.556  1.00  0.00     0.223 HD
ENDBRANCH  10  12
BRANCH  10  14
ATOM     14  O   UNL     1      -4.431  59.616  33.477  1.00  0.00    -0.302 OA
ATOM     15  H   UNL     1      -4.037  58.734  33.308  1.00  0.00     0.223 HD
ENDBRANCH  10  14
ENDBRANCH   9  10
ENDBRANCH   7   9
BRANCH   7  16
ATOM     16  O   UNL     1      -7.234  63.588  34.288  1.00  0.00    -0.302 OA
ATOM     17  H   UNL     1      -6.387  64.014  34.036  1.00  0.00     0.223 HD
ENDBRANCH   7  16
ENDBRANCH   6   7
ENDBRANCH   5   6
BRANCH   4  18
ATOM     18  O   UNL     1      -5.476  63.956  38.556  1.00  0.00    -0.385 OA
ATOM     19  H   UNL     1      -4.842  63.551  39.171  1.00  0.00     0.211 HD
ENDBRANCH   4  18
BRANCH   3  20
ATOM     20  C   UNL     1      -6.214  60.117  40.515  1.00  0.00     0.208 C 
BRANCH  20  21
ATOM     21  O   UNL     1      -5.904  60.382  41.873  1.00  0.00    -0.284 OA
BRANCH  21  22
ATOM     22  P   UNL     1      -4.366  60.238  42.356  1.00  0.00     0.469 P 
ATOM     23  O   UNL     1      -3.613  59.094  41.742  1.00  0.00    -0.228 OA
BRANCH  22  24
ATOM     24  O   UNL     1      -4.471  60.210  43.968  1.00  0.00    -0.303 OA
ATOM     25  H   UNL     1      -4.097  60.958  44.482  1.00  0.00     0.223 HD
ENDBRANCH  22  24
BRANCH  22  26
ATOM     26  O   UNL     1      -3.753  61.702  42.048  1.00  0.00    -0.303 OA
ATOM     27  H   UNL     1      -3.242  61.838  41.222  1.00  0.00     0.223 HD
ENDBRANCH  22  26
ENDBRANCH  21  22
ENDBRANCH  20  21
ENDBRANCH   3  20
BRANCH   2  28
ATOM     28  O   UNL     1      -6.306  63.289  41.091  1.00  0.00    -0.387 OA
ATOM     29  H   UNL     1      -5.936  64.119  40.745  1.00  0.00     0.211 HD
ENDBRANCH   2  28
TORSDOF 14
REMARK SMILES O=c1[nH]cc(F)c(=O)[nH]1
REMARK SMILES IDX 6 1 8 2 1 3 9 4 3 5 7 6 2 7 5 8 4 9
REMARK H PARENT 9 10 3 11
REMARK Flexibility Score: inf
ROOT
ATOM      1  F   UNL     1      -1.852  59.865  38.549  1.00  0.00    -0.199 F 
ATOM      2  O   UNL     1      -2.902  62.328  39.044  1.00  0.00    -0.266 OA
ATOM      3  O   UNL     1      -3.365  63.107  34.503  1.00  0.00    -0.248 OA
ATOM      4  N   UNL     1      -3.143  62.743  36.774  1.00  0.00    -0.272 N 
ATOM      5  N   UNL     1      -2.480  61.106  35.228  1.00  0.00    -0.311 N 
ATOM      6  C   UNL     1      -2.781  61.975  37.876  1.00  0.00     0.289 A 
ATOM      7  C   UNL     1      -3.021  62.372  35.430  1.00  0.00     0.325 A 
ATOM      8  C   UNL     1      -2.221  60.655  37.525  1.00  0.00     0.204 A 
ATOM      9  C   UNL     1      -2.096  60.284  36.252  1.00  0.00     0.132 A 
ATOM     10  H   UNL     1      -3.535  63.662  36.963  1.00  0.00     0.175 HD
ATOM     11  H   UNL     1      -2.360  60.768  34.278  1.00  0.00     0.171 HD
ENDROOT
TORSDOF 0
ENDMDL
