MODEL 1
REMARK VINA RESULT:    -6.346      0.000      0.000
REMARK INTER + INTRA:         -11.987
REMARK INTER:                 -10.241
REMARK INTRA:                  -1.746
REMARK UNBOUND:                -1.746
REMARK SMILES O=P(O)(O)OC[C@H]1O[C@H](O[P@@](=O)(O)OP(=O)(O)O)[C@H](O)[C@@H]1O
REMARK SMILES IDX 8 1 21 2 7 3 19 4 9 5 10 6 11 7 12 8 14 9 15 10 16 11 17 12
REMARK SMILES IDX 18 14 13 16 20 18 6 20 5 21 2 22 1 23 3 24 4 26 22 28
REMARK H PARENT 17 13 18 15 13 17 20 19 3 25 4 27 22 29
REMARK Flexibility Score: inf
ROOT
ATOM      1  O   UNL     1      -0.839  -1.321 -12.604  1.00  0.00    -0.341 OA
ATOM      2  C   UNL     1      -1.670  -1.849 -10.451  1.00  0.00     0.179 C 
ATOM      3  C   UNL     1      -2.068  -1.421 -11.858  1.00  0.00     0.179 C 
ATOM      4  C   UNL     1      -0.463  -2.717 -10.732  1.00  0.00     0.202 C 
ATOM      5  C   UNL     1       0.221  -1.892 -11.814  1.00  0.00     0.293 C 
ENDROOT
BRANCH   5   6
ATOM      6  O   UNL     1       1.107  -2.689 -12.579  1.00  0.00    -0.253 OA
BRANCH   6   7
ATOM      7  P   UNL     1       2.349  -2.001 -13.357  1.00  0.00     0.483 P 
ATOM      8  O   UNL     1       2.729  -0.638 -12.854  1.00  0.00    -0.228 OA
BRANCH   7   9
ATOM      9  O   UNL     1       1.920  -2.036 -14.916  1.00  0.00    -0.185 OA
BRANCH   9  10
ATOM     10  P   UNL     1       0.704  -1.315 -15.698  1.00  0.00     0.478 P 
ATOM     11  O   UNL     1       0.903  -1.182 -17.179  1.00  0.00    -0.228 OA
BRANCH  10  12
ATOM     12  O   UNL     1       0.528   0.077 -14.897  1.00  0.00    -0.302 OA
ATOM     13  H   UNL     1      -0.359   0.317 -14.552  1.00  0.00     0.223 HD
ENDBRANCH  10  12
BRANCH  10  14
ATOM     14  O   UNL     1      -0.589  -2.175 -15.249  1.00  0.00    -0.302 OA
ATOM     15  H   UNL     1      -0.455  -3.017 -14.764  1.00  0.00     0.223 HD
ENDBRANCH  10  14
ENDBRANCH   9  10
ENDBRANCH   7   9
BRANCH   7  16
ATOM     16  O   UNL     1       3.534  -3.098 -13.273  1.00  0.00    -0.302 OA
ATOM     17  H   UNL     1       3.627  -3.752 -13.998  1.00  0.00     0.223 HD
ENDBRANCH   7  16
ENDBRANCH   6   7
ENDBRANCH   5   6
BRANCH   4  18
ATOM     18  O   UNL     1      -0.888  -3.972 -11.261  1.00  0.00    -0.385 OA
ATOM     19  H   UNL     1      -1.859  -3.993 -11.282  1.00  0.00     0.211 HD
ENDBRANCH   4  18
BRANCH   3  20
ATOM     20  C   UNL     1      -2.799  -0.091 -11.896  1.00  0.00     0.208 C 
BRANCH  20  21
ATOM     21  O   UNL     1      -2.891   0.418 -10.575  1.00  0.00    -0.284 OA
BRANCH  21  22
ATOM     22  P   UNL     1      -2.598   1.991 -10.333  1.00  0.00     0.469 P 
ATOM     23  O   UNL     1      -2.921   2.492  -8.956  1.00  0.00    -0.228 OA
BRANCH  22  24
ATOM     24  O   UNL     1      -3.392   2.720 -11.538  1.00  0.00    -0.303 OA
ATOM     25  H   UNL     1      -3.684   2.185 -12.307  1.00  0.00     0.223 HD
ENDBRANCH  22  24
BRANCH  22  26
ATOM     26  O   UNL     1      -1.047   2.139 -10.766  1.00  0.00    -0.303 OA
ATOM     27  H   UNL     1      -0.821   2.172 -11.720  1.00  0.00     0.223 HD
ENDBRANCH  22  26
ENDBRANCH  21  22
ENDBRANCH  20  21
ENDBRANCH   3  20
BRANCH   2  28
ATOM     28  O   UNL     1      -2.712  -2.534  -9.792  1.00  0.00    -0.387 OA
ATOM     29  H   UNL     1      -3.193  -3.054 -10.458  1.00  0.00     0.211 HD
ENDBRANCH   2  28
TORSDOF 14
ENDMDL
MODEL 2
REMARK VINA RESULT:    -6.324      1.773      5.781
REMARK INTER + INTRA:         -11.952
REMARK INTER:                 -11.180
REMARK INTRA:                  -0.772
REMARK UNBOUND:                -1.746
REMARK SMILES O=P(O)(O)OC[C@H]1O[C@H](O[P@@](=O)(O)OP(=O)(O)O)[C@H](O)[C@@H]1O
REMARK SMILES IDX 8 1 21 2 7 3 19 4 9 5 10 6 11 7 12 8 14 9 15 10 16 11 17 12
REMARK SMILES IDX 18 14 13 16 20 18 6 20 5 21 2 22 1 23 3 24 4 26 22 28
REMARK H PARENT 17 13 18 15 13 17 20 19 3 25 4 27 22 29
REMARK Flexibility Score: inf
ROOT
ATOM      1  O   UNL     1       0.481  -2.394 -12.263  1.00  0.00    -0.341 OA
ATOM      2  C   UNL     1       0.710  -4.732 -11.981  1.00  0.00     0.179 C 
ATOM      3  C   UNL     1       1.453  -3.454 -12.349  1.00  0.00     0.179 C 
ATOM      4  C   UNL     1      -0.291  -4.218 -10.970  1.00  0.00     0.202 C 
ATOM      5  C   UNL     1      -0.707  -2.914 -11.638  1.00  0.00     0.293 C 
ENDROOT
BRANCH   5   6
ATOM      6  O   UNL     1      -1.271  -2.017 -10.698  1.00  0.00    -0.253 OA
BRANCH   6   7
ATOM      7  P   UNL     1      -2.488  -1.044 -11.135  1.00  0.00     0.483 P 
ATOM      8  O   UNL     1      -3.040  -1.304 -12.507  1.00  0.00    -0.228 OA
BRANCH   7   9
ATOM      9  O   UNL     1      -1.908   0.451 -10.928  1.00  0.00    -0.185 OA
BRANCH   9  10
ATOM     10  P   UNL     1      -2.658   1.880 -10.864  1.00  0.00     0.478 P 
ATOM     11  O   UNL     1      -3.060   2.316  -9.487  1.00  0.00    -0.228 OA
BRANCH  10  12
ATOM     12  O   UNL     1      -3.873   1.703 -11.915  1.00  0.00    -0.302 OA
ATOM     13  H   UNL     1      -4.145   0.798 -12.178  1.00  0.00     0.223 HD
ENDBRANCH  10  12
BRANCH  10  14
ATOM     14  O   UNL     1      -1.637   2.871 -11.632  1.00  0.00    -0.302 OA
ATOM     15  H   UNL     1      -2.003   3.596 -12.182  1.00  0.00     0.223 HD
ENDBRANCH  10  14
ENDBRANCH   9  10
ENDBRANCH   7   9
BRANCH   7  16
ATOM     16  O   UNL     1      -3.570  -1.191  -9.942  1.00  0.00    -0.302 OA
ATOM     17  H   UNL     1      -4.142  -1.988  -9.915  1.00  0.00     0.223 HD
ENDBRANCH   7  16
ENDBRANCH   6   7
ENDBRANCH   5   6
BRANCH   4  18
ATOM     18  O   UNL     1       0.370  -3.952  -9.735  1.00  0.00    -0.385 OA
ATOM     19  H   UNL     1       1.150  -4.527  -9.664  1.00  0.00     0.211 HD
ENDBRANCH   4  18
BRANCH   3  20
ATOM     20  C   UNL     1       2.051  -3.488 -13.744  1.00  0.00     0.208 C 
BRANCH  20  21
ATOM     21  O   UNL     1       1.219  -2.741 -14.617  1.00  0.00    -0.284 OA
BRANCH  21  22
ATOM     22  P   UNL     1       1.572  -1.183 -14.873  1.00  0.00     0.469 P 
ATOM     23  O   UNL     1       2.901  -0.737 -14.336  1.00  0.00    -0.228 OA
BRANCH  22  24
ATOM     24  O   UNL     1       0.289  -0.396 -14.284  1.00  0.00    -0.303 OA
ATOM     25  H   UNL     1      -0.392  -0.063 -14.907  1.00  0.00     0.223 HD
ENDBRANCH  22  24
BRANCH  22  26
ATOM     26  O   UNL     1       1.398  -1.032 -16.474  1.00  0.00    -0.303 OA
ATOM     27  H   UNL     1       2.030  -0.469 -16.969  1.00  0.00     0.223 HD
ENDBRANCH  22  26
ENDBRANCH  21  22
ENDBRANCH  20  21
ENDBRANCH   3  20
BRANCH   2  28
ATOM     28  O   UNL     1       1.577  -5.717 -11.462  1.00  0.00    -0.387 OA
ATOM     29  H   UNL     1       2.482  -5.489 -11.736  1.00  0.00     0.211 HD
ENDBRANCH   2  28
TORSDOF 14
ENDMDL
MODEL 3
REMARK VINA RESULT:    -6.308      3.025      5.743
REMARK INTER + INTRA:         -11.926
REMARK INTER:                 -10.212
REMARK INTRA:                  -1.714
REMARK UNBOUND:                -1.746
REMARK SMILES O=P(O)(O)OC[C@H]1O[C@H](O[P@@](=O)(O)OP(=O)(O)O)[C@H](O)[C@@H]1O
REMARK SMILES IDX 8 1 21 2 7 3 19 4 9 5 10 6 11 7 12 8 14 9 15 10 16 11 17 12
REMARK SMILES IDX 18 14 13 16 20 18 6 20 5 21 2 22 1 23 3 24 4 26 22 28
REMARK H PARENT 17 13 18 15 13 17 20 19 3 25 4 27 22 29
REMARK Flexibility Score: inf
ROOT
ATOM      1  O   UNL     1      -0.807  -3.519 -11.480  1.00  0.00    -0.341 OA
ATOM      2  C   UNL     1       1.008  -3.945 -12.938  1.00  0.00     0.179 C 
ATOM      3  C   UNL     1       0.498  -3.025 -11.835  1.00  0.00     0.179 C 
ATOM      4  C   UNL     1       0.387  -5.265 -12.538  1.00  0.00     0.202 C 
ATOM      5  C   UNL     1      -0.998  -4.798 -12.114  1.00  0.00     0.293 C 
ENDROOT
BRANCH   5   6
ATOM      6  O   UNL     1      -1.617  -5.746 -11.262  1.00  0.00    -0.253 OA
BRANCH   6   7
ATOM      7  P   UNL     1      -3.186  -6.101 -11.449  1.00  0.00     0.483 P 
ATOM      8  O   UNL     1      -3.567  -6.561 -12.827  1.00  0.00    -0.228 OA
BRANCH   7   9
ATOM      9  O   UNL     1      -3.964  -4.772 -10.955  1.00  0.00    -0.185 OA
BRANCH   9  10
ATOM     10  P   UNL     1      -3.952  -4.003  -9.535  1.00  0.00     0.478 P 
ATOM     11  O   UNL     1      -4.826  -2.786  -9.474  1.00  0.00    -0.228 OA
BRANCH  10  12
ATOM     12  O   UNL     1      -2.379  -3.736  -9.275  1.00  0.00    -0.302 OA
ATOM     13  H   UNL     1      -2.108  -2.925  -8.795  1.00  0.00     0.223 HD
ENDBRANCH  10  12
BRANCH  10  14
ATOM     14  O   UNL     1      -4.315  -5.170  -8.476  1.00  0.00    -0.302 OA
ATOM     15  H   UNL     1      -4.091  -5.039  -7.530  1.00  0.00     0.223 HD
ENDBRANCH  10  14
ENDBRANCH   9  10
ENDBRANCH   7   9
BRANCH   7  16
ATOM     16  O   UNL     1      -3.499  -7.171 -10.278  1.00  0.00    -0.302 OA
ATOM     17  H   UNL     1      -4.347  -7.663 -10.299  1.00  0.00     0.223 HD
ENDBRANCH   7  16
ENDBRANCH   6   7
ENDBRANCH   5   6
BRANCH   4  18
ATOM     18  O   UNL     1       1.091  -5.806 -11.421  1.00  0.00    -0.385 OA
ATOM     19  H   UNL     1       1.790  -6.398 -11.745  1.00  0.00     0.211 HD
ENDBRANCH   4  18
BRANCH   3  20
ATOM     20  C   UNL     1       0.396  -1.572 -12.265  1.00  0.00     0.208 C 
BRANCH  20  21
ATOM     21  O   UNL     1      -0.974  -1.234 -12.411  1.00  0.00    -0.284 OA
BRANCH  21  22
ATOM     22  P   UNL     1      -1.633  -0.211 -11.343  1.00  0.00     0.469 P 
ATOM     23  O   UNL     1      -3.007   0.277 -11.698  1.00  0.00    -0.228 OA
BRANCH  22  24
ATOM     24  O   UNL     1      -0.513   0.941 -11.173  1.00  0.00    -0.303 OA
ATOM     25  H   UNL     1       0.093   1.130 -11.922  1.00  0.00     0.223 HD
ENDBRANCH  22  24
BRANCH  22  26
ATOM     26  O   UNL     1      -1.538  -1.032  -9.953  1.00  0.00    -0.303 OA
ATOM     27  H   UNL     1      -2.146  -0.796  -9.220  1.00  0.00     0.223 HD
ENDBRANCH  22  26
ENDBRANCH  21  22
ENDBRANCH  20  21
ENDBRANCH   3  20
BRANCH   2  28
ATOM     28  O   UNL     1       2.417  -3.979 -12.989  1.00  0.00    -0.387 OA
ATOM     29  H   UNL     1       2.724  -3.101 -13.273  1.00  0.00     0.211 HD
ENDBRANCH   2  28
TORSDOF 14
ENDMDL
MODEL 4
REMARK VINA RESULT:    -6.283      2.919      5.182
REMARK INTER + INTRA:         -11.885
REMARK INTER:                 -10.517
REMARK INTRA:                  -1.368
REMARK UNBOUND:                -1.746
REMARK SMILES O=P(O)(O)OC[C@H]1O[C@H](O[P@@](=O)(O)OP(=O)(O)O)[C@H](O)[C@@H]1O
REMARK SMILES IDX 8 1 21 2 7 3 19 4 9 5 10 6 11 7 12 8 14 9 15 10 16 11 17 12
REMARK SMILES IDX 18 14 13 16 20 18 6 20 5 21 2 22 1 23 3 24 4 26 22 28
REMARK H PARENT 17 13 18 15 13 17 20 19 3 25 4 27 22 29
REMARK Flexibility Score: inf
ROOT
ATOM      1  O   UNL     1      -1.927  -1.920 -10.828  1.00  0.00    -0.341 OA
ATOM      2  C   UNL     1      -0.164  -2.064 -12.401  1.00  0.00     0.179 C 
ATOM      3  C   UNL     1      -0.785  -1.190 -11.318  1.00  0.00     0.179 C 
ATOM      4  C   UNL     1      -0.456  -3.450 -11.871  1.00  0.00     0.202 C 
ATOM      5  C   UNL     1      -1.879  -3.255 -11.365  1.00  0.00     0.293 C 
ENDROOT
BRANCH   5   6
ATOM      6  O   UNL     1      -2.220  -4.243 -10.409  1.00  0.00    -0.253 OA
BRANCH   6   7
ATOM      7  P   UNL     1      -3.333  -5.364 -10.765  1.00  0.00     0.483 P 
ATOM      8  O   UNL     1      -2.789  -6.616 -11.390  1.00  0.00    -0.228 OA
BRANCH   7   9
ATOM      9  O   UNL     1      -4.416  -4.584 -11.678  1.00  0.00    -0.185 OA
BRANCH   9  10
ATOM     10  P   UNL     1      -5.596  -3.555 -11.279  1.00  0.00     0.478 P 
ATOM     11  O   UNL     1      -6.188  -2.802 -12.432  1.00  0.00    -0.228 OA
BRANCH  10  12
ATOM     12  O   UNL     1      -4.912  -2.640 -10.135  1.00  0.00    -0.302 OA
ATOM     13  H   UNL     1      -4.208  -3.030  -9.573  1.00  0.00     0.223 HD
ENDBRANCH  10  12
BRANCH  10  14
ATOM     14  O   UNL     1      -6.632  -4.480 -10.452  1.00  0.00    -0.302 OA
ATOM     15  H   UNL     1      -7.239  -5.071 -10.946  1.00  0.00     0.223 HD
ENDBRANCH  10  14
ENDBRANCH   9  10
ENDBRANCH   7   9
BRANCH   7  16
ATOM     16  O   UNL     1      -4.124  -5.602  -9.374  1.00  0.00    -0.302 OA
ATOM     17  H   UNL     1      -3.983  -6.441  -8.886  1.00  0.00     0.223 HD
ENDBRANCH   7  16
ENDBRANCH   6   7
ENDBRANCH   5   6
BRANCH   4  18
ATOM     18  O   UNL     1       0.420  -3.743 -10.785  1.00  0.00    -0.385 OA
ATOM     19  H   UNL     1       0.884  -2.929 -10.526  1.00  0.00     0.211 HD
ENDBRANCH   4  18
BRANCH   3  20
ATOM     20  C   UNL     1      -1.228   0.171 -11.827  1.00  0.00     0.208 C 
BRANCH  20  21
ATOM     21  O   UNL     1      -2.479   0.493 -11.242  1.00  0.00    -0.284 OA
BRANCH  21  22
ATOM     22  P   UNL     1      -2.802   2.045 -10.918  1.00  0.00     0.469 P 
ATOM     23  O   UNL     1      -3.121   2.341  -9.482  1.00  0.00    -0.228 OA
BRANCH  22  24
ATOM     24  O   UNL     1      -3.962   2.425 -11.977  1.00  0.00    -0.303 OA
ATOM     25  H   UNL     1      -4.762   1.859 -12.029  1.00  0.00     0.223 HD
ENDBRANCH  22  24
BRANCH  22  26
ATOM     26  O   UNL     1      -1.502   2.812 -11.499  1.00  0.00    -0.303 OA
ATOM     27  H   UNL     1      -0.695   2.292 -11.702  1.00  0.00     0.223 HD
ENDBRANCH  22  26
ENDBRANCH  21  22
ENDBRANCH  20  21
ENDBRANCH   3  20
BRANCH   2  28
ATOM     28  O   UNL     1       1.213  -1.804 -12.565  1.00  0.00    -0.387 OA
ATOM     29  H   UNL     1       1.703  -2.473 -12.058  1.00  0.00     0.211 HD
ENDBRANCH   2  28
TORSDOF 14
ENDMDL
MODEL 5
REMARK VINA RESULT:    -6.162      4.237      7.043
REMARK INTER + INTRA:         -11.690
REMARK INTER:                  -9.854
REMARK INTRA:                  -1.836
REMARK UNBOUND:                -1.746
REMARK SMILES O=P(O)(O)OC[C@H]1O[C@H](O[P@@](=O)(O)OP(=O)(O)O)[C@H](O)[C@@H]1O
REMARK SMILES IDX 8 1 21 2 7 3 19 4 9 5 10 6 11 7 12 8 14 9 15 10 16 11 17 12
REMARK SMILES IDX 18 14 13 16 20 18 6 20 5 21 2 22 1 23 3 24 4 26 22 28
REMARK H PARENT 17 13 18 15 13 17 20 19 3 25 4 27 22 29
REMARK Flexibility Score: inf
ROOT
ATOM      1  O   UNL     1      -2.711  -5.600 -11.674  1.00  0.00    -0.341 OA
ATOM      2  C   UNL     1      -5.074  -5.717 -11.583  1.00  0.00     0.179 C 
ATOM      3  C   UNL     1      -3.799  -6.544 -11.700  1.00  0.00     0.179 C 
ATOM      4  C   UNL     1      -4.610  -4.575 -10.706  1.00  0.00     0.202 C 
ATOM      5  C   UNL     1      -3.236  -4.310 -11.305  1.00  0.00     0.293 C 
ENDROOT
BRANCH   5   6
ATOM      6  O   UNL     1      -2.404  -3.621 -10.389  1.00  0.00    -0.253 OA
BRANCH   6   7
ATOM      7  P   UNL     1      -1.146  -2.757 -10.929  1.00  0.00     0.483 P 
ATOM      8  O   UNL     1      -1.351  -2.120 -12.274  1.00  0.00    -0.228 OA
BRANCH   7   9
ATOM      9  O   UNL     1       0.106  -3.777 -10.863  1.00  0.00    -0.185 OA
BRANCH   9  10
ATOM     10  P   UNL     1       0.996  -4.441 -12.036  1.00  0.00     0.478 P 
ATOM     11  O   UNL     1       2.116  -3.580 -12.537  1.00  0.00    -0.228 OA
BRANCH  10  12
ATOM     12  O   UNL     1      -0.107  -4.852 -13.144  1.00  0.00    -0.302 OA
ATOM     13  H   UNL     1       0.184  -5.009 -14.068  1.00  0.00     0.223 HD
ENDBRANCH  10  12
BRANCH  10  14
ATOM     14  O   UNL     1       1.444  -5.861 -11.406  1.00  0.00    -0.302 OA
ATOM     15  H   UNL     1       1.992  -5.867 -10.593  1.00  0.00     0.223 HD
ENDBRANCH  10  14
ENDBRANCH   9  10
ENDBRANCH   7   9
BRANCH   7  16
ATOM     16  O   UNL     1      -0.836  -1.709  -9.736  1.00  0.00    -0.302 OA
ATOM     17  H   UNL     1      -1.498  -1.594  -9.022  1.00  0.00     0.223 HD
ENDBRANCH   7  16
ENDBRANCH   6   7
ENDBRANCH   5   6
BRANCH   4  18
ATOM     18  O   UNL     1      -4.484  -5.026  -9.359  1.00  0.00    -0.385 OA
ATOM     19  H   UNL     1      -5.232  -4.685  -8.840  1.00  0.00     0.211 HD
ENDBRANCH   4  18
BRANCH   3  20
ATOM     20  C   UNL     1      -3.733  -7.366 -12.975  1.00  0.00     0.208 C 
BRANCH  20  21
ATOM     21  O   UNL     1      -3.027  -8.567 -12.708  1.00  0.00    -0.284 OA
BRANCH  21  22
ATOM     22  P   UNL     1      -1.576  -8.776 -13.394  1.00  0.00     0.469 P 
ATOM     23  O   UNL     1      -1.563  -8.685 -14.892  1.00  0.00    -0.228 OA
BRANCH  22  24
ATOM     24  O   UNL     1      -1.061 -10.181 -12.782  1.00  0.00    -0.303 OA
ATOM     25  H   UNL     1      -0.909 -10.937 -13.389  1.00  0.00     0.223 HD
ENDBRANCH  22  24
BRANCH  22  26
ATOM     26  O   UNL     1      -0.658  -7.681 -12.636  1.00  0.00    -0.303 OA
ATOM     27  H   UNL     1       0.188  -7.968 -12.233  1.00  0.00     0.223 HD
ENDBRANCH  22  26
ENDBRANCH  21  22
ENDBRANCH  20  21
ENDBRANCH   3  20
BRANCH   2  28
ATOM     28  O   UNL     1      -6.136  -6.459 -11.024  1.00  0.00    -0.387 OA
ATOM     29  H   UNL     1      -5.835  -7.378 -10.925  1.00  0.00     0.211 HD
ENDBRANCH   2  28
TORSDOF 14
ENDMDL
MODEL 6
REMARK VINA RESULT:    -6.099      3.321      6.603
REMARK INTER + INTRA:         -11.589
REMARK INTER:                 -10.002
REMARK INTRA:                  -1.587
REMARK UNBOUND:                -1.746
REMARK SMILES O=P(O)(O)OC[C@H]1O[C@H](O[P@@](=O)(O)OP(=O)(O)O)[C@H](O)[C@@H]1O
REMARK SMILES IDX 8 1 21 2 7 3 19 4 9 5 10 6 11 7 12 8 14 9 15 10 16 11 17 12
REMARK SMILES IDX 18 14 13 16 20 18 6 20 5 21 2 22 1 23 3 24 4 26 22 28
REMARK H PARENT 17 13 18 15 13 17 20 19 3 25 4 27 22 29
REMARK Flexibility Score: inf
ROOT
ATOM      1  O   UNL     1      -2.369  -3.339 -11.477  1.00  0.00    -0.341 OA
ATOM      2  C   UNL     1      -1.008  -1.491 -10.897  1.00  0.00     0.179 C 
ATOM      3  C   UNL     1      -1.228  -2.586 -11.934  1.00  0.00     0.179 C 
ATOM      4  C   UNL     1      -2.427  -1.207 -10.456  1.00  0.00     0.202 C 
ATOM      5  C   UNL     1      -2.981  -2.623 -10.388  1.00  0.00     0.293 C 
ENDROOT
BRANCH   5   6
ATOM      6  O   UNL     1      -4.396  -2.621 -10.459  1.00  0.00    -0.253 OA
BRANCH   6   7
ATOM      7  P   UNL     1      -5.198  -4.012 -10.665  1.00  0.00     0.483 P 
ATOM      8  O   UNL     1      -4.483  -5.232 -10.161  1.00  0.00    -0.228 OA
BRANCH   7   9
ATOM      9  O   UNL     1      -5.542  -4.051 -12.244  1.00  0.00    -0.185 OA
BRANCH   9  10
ATOM     10  P   UNL     1      -6.170  -2.928 -13.221  1.00  0.00     0.478 P 
ATOM     11  O   UNL     1      -6.576  -3.430 -14.575  1.00  0.00    -0.228 OA
BRANCH  10  12
ATOM     12  O   UNL     1      -5.039  -1.772 -13.224  1.00  0.00    -0.302 OA
ATOM     13  H   UNL     1      -4.099  -2.029 -13.334  1.00  0.00     0.223 HD
ENDBRANCH  10  12
BRANCH  10  14
ATOM     14  O   UNL     1      -7.361  -2.287 -12.336  1.00  0.00    -0.302 OA
ATOM     15  H   UNL     1      -8.234  -2.733 -12.321  1.00  0.00     0.223 HD
ENDBRANCH  10  14
ENDBRANCH   9  10
ENDBRANCH   7   9
BRANCH   7  16
ATOM     16  O   UNL     1      -6.639  -3.751  -9.978  1.00  0.00    -0.302 OA
ATOM     17  H   UNL     1      -6.742  -3.912  -9.015  1.00  0.00     0.223 HD
ENDBRANCH   7  16
ENDBRANCH   6   7
ENDBRANCH   5   6
BRANCH   4  18
ATOM     18  O   UNL     1      -3.102  -0.459 -11.465  1.00  0.00    -0.385 OA
ATOM     19  H   UNL     1      -3.799  -1.013 -11.855  1.00  0.00     0.211 HD
ENDBRANCH   4  18
BRANCH   3  20
ATOM     20  C   UNL     1      -0.035  -3.511 -12.092  1.00  0.00     0.208 C 
BRANCH  20  21
ATOM     21  O   UNL     1       1.148  -2.729 -12.124  1.00  0.00    -0.284 OA
BRANCH  21  22
ATOM     22  P   UNL     1       2.249  -3.043 -13.268  1.00  0.00     0.469 P 
ATOM     23  O   UNL     1       2.842  -1.832 -13.927  1.00  0.00    -0.228 OA
BRANCH  22  24
ATOM     24  O   UNL     1       1.490  -4.068 -14.261  1.00  0.00    -0.303 OA
ATOM     25  H   UNL     1       1.870  -4.238 -15.150  1.00  0.00     0.223 HD
ENDBRANCH  22  24
BRANCH  22  26
ATOM     26  O   UNL     1       3.310  -3.989 -12.497  1.00  0.00    -0.303 OA
ATOM     27  H   UNL     1       3.787  -3.631 -11.718  1.00  0.00     0.223 HD
ENDBRANCH  22  26
ENDBRANCH  21  22
ENDBRANCH  20  21
ENDBRANCH   3  20
BRANCH   2  28
ATOM     28  O   UNL     1      -0.355  -0.368 -11.446  1.00  0.00    -0.387 OA
ATOM     29  H   UNL     1       0.600  -0.481 -11.302  1.00  0.00     0.211 HD
ENDBRANCH   2  28
TORSDOF 14
ENDMDL
MODEL 7
REMARK VINA RESULT:    -6.095      3.953      5.620
REMARK INTER + INTRA:         -11.583
REMARK INTER:                 -10.238
REMARK INTRA:                  -1.345
REMARK UNBOUND:                -1.746
REMARK SMILES O=P(O)(O)OC[C@H]1O[C@H](O[P@@](=O)(O)OP(=O)(O)O)[C@H](O)[C@@H]1O
REMARK SMILES IDX 8 1 21 2 7 3 19 4 9 5 10 6 11 7 12 8 14 9 15 10 16 11 17 12
REMARK SMILES IDX 18 14 13 16 20 18 6 20 5 21 2 22 1 23 3 24 4 26 22 28
REMARK H PARENT 17 13 18 15 13 17 20 19 3 25 4 27 22 29
REMARK Flexibility Score: inf
ROOT
ATOM      1  O   UNL     1      -3.758  -2.393 -11.597  1.00  0.00    -0.341 OA
ATOM      2  C   UNL     1      -1.585  -2.180 -10.682  1.00  0.00     0.179 C 
ATOM      3  C   UNL     1      -2.893  -1.444 -10.943  1.00  0.00     0.179 C 
ATOM      4  C   UNL     1      -2.078  -3.590 -10.440  1.00  0.00     0.202 C 
ATOM      5  C   UNL     1      -3.147  -3.695 -11.519  1.00  0.00     0.293 C 
ENDROOT
BRANCH   5   6
ATOM      6  O   UNL     1      -4.077  -4.720 -11.217  1.00  0.00    -0.253 OA
BRANCH   6   7
ATOM      7  P   UNL     1      -3.794  -6.238 -11.700  1.00  0.00     0.483 P 
ATOM      8  O   UNL     1      -2.517  -6.427 -12.468  1.00  0.00    -0.228 OA
BRANCH   7   9
ATOM      9  O   UNL     1      -5.125  -6.660 -12.516  1.00  0.00    -0.185 OA
BRANCH   9  10
ATOM     10  P   UNL     1      -6.570  -5.946 -12.627  1.00  0.00     0.478 P 
ATOM     11  O   UNL     1      -7.610  -6.746 -13.354  1.00  0.00    -0.228 OA
BRANCH  10  12
ATOM     12  O   UNL     1      -6.221  -4.511 -13.283  1.00  0.00    -0.302 OA
ATOM     13  H   UNL     1      -5.546  -4.465 -13.994  1.00  0.00     0.223 HD
ENDBRANCH  10  12
BRANCH  10  14
ATOM     14  O   UNL     1      -6.926  -5.583 -11.093  1.00  0.00    -0.302 OA
ATOM     15  H   UNL     1      -7.854  -5.671 -10.787  1.00  0.00     0.223 HD
ENDBRANCH  10  14
ENDBRANCH   9  10
ENDBRANCH   7   9
BRANCH   7  16
ATOM     16  O   UNL     1      -3.895  -7.117 -10.346  1.00  0.00    -0.302 OA
ATOM     17  H   UNL     1      -3.181  -7.760 -10.144  1.00  0.00     0.223 HD
ENDBRANCH   7  16
ENDBRANCH   6   7
ENDBRANCH   5   6
BRANCH   4  18
ATOM     18  O   UNL     1      -2.671  -3.674  -9.145  1.00  0.00    -0.385 OA
ATOM     19  H   UNL     1      -2.351  -4.478  -8.703  1.00  0.00     0.211 HD
ENDBRANCH   4  18
BRANCH   3  20
ATOM     20  C   UNL     1      -2.725  -0.216 -11.820  1.00  0.00     0.208 C 
BRANCH  20  21
ATOM     21  O   UNL     1      -1.858   0.697 -11.168  1.00  0.00    -0.284 OA
BRANCH  21  22
ATOM     22  P   UNL     1      -2.495   2.037 -10.521  1.00  0.00     0.469 P 
ATOM     23  O   UNL     1      -3.047   1.872  -9.135  1.00  0.00    -0.228 OA
BRANCH  22  24
ATOM     24  O   UNL     1      -3.557   2.534 -11.633  1.00  0.00    -0.303 OA
ATOM     25  H   UNL     1      -3.322   3.292 -12.210  1.00  0.00     0.223 HD
ENDBRANCH  22  24
BRANCH  22  26
ATOM     26  O   UNL     1      -1.290   3.108 -10.651  1.00  0.00    -0.303 OA
ATOM     27  H   UNL     1      -0.449   2.827 -11.071  1.00  0.00     0.223 HD
ENDBRANCH  22  26
ENDBRANCH  21  22
ENDBRANCH  20  21
ENDBRANCH   3  20
BRANCH   2  28
ATOM     28  O   UNL     1      -0.881  -1.635  -9.588  1.00  0.00    -0.387 OA
ATOM     29  H   UNL     1      -0.862  -2.306  -8.885  1.00  0.00     0.211 HD
ENDBRANCH   2  28
TORSDOF 14
ENDMDL
MODEL 8
REMARK VINA RESULT:    -6.014      2.200      5.009
REMARK INTER + INTRA:         -11.452
REMARK INTER:                  -9.799
REMARK INTRA:                  -1.653
REMARK UNBOUND:                -1.746
REMARK SMILES O=P(O)(O)OC[C@H]1O[C@H](O[P@@](=O)(O)OP(=O)(O)O)[C@H](O)[C@@H]1O
REMARK SMILES IDX 8 1 21 2 7 3 19 4 9 5 10 6 11 7 12 8 14 9 15 10 16 11 17 12
REMARK SMILES IDX 18 14 13 16 20 18 6 20 5 21 2 22 1 23 3 24 4 26 22 28
REMARK H PARENT 17 13 18 15 13 17 20 19 3 25 4 27 22 29
REMARK Flexibility Score: inf
ROOT
ATOM      1  O   UNL     1       0.375  -2.334 -12.240  1.00  0.00    -0.341 OA
ATOM      2  C   UNL     1      -1.661  -1.914 -11.107  1.00  0.00     0.179 C 
ATOM      3  C   UNL     1      -0.207  -2.332 -10.922  1.00  0.00     0.179 C 
ATOM      4  C   UNL     1      -1.552  -0.962 -12.278  1.00  0.00     0.202 C 
ATOM      5  C   UNL     1      -0.555  -1.713 -13.149  1.00  0.00     0.293 C 
ENDROOT
BRANCH   5   6
ATOM      6  O   UNL     1       0.076  -0.841 -14.070  1.00  0.00    -0.253 OA
BRANCH   6   7
ATOM      7  P   UNL     1       1.064  -1.439 -15.204  1.00  0.00     0.483 P 
ATOM      8  O   UNL     1       0.995  -2.929 -15.378  1.00  0.00    -0.228 OA
BRANCH   7   9
ATOM      9  O   UNL     1       2.529  -0.887 -14.798  1.00  0.00    -0.185 OA
BRANCH   9  10
ATOM     10  P   UNL     1       3.406  -1.095 -13.457  1.00  0.00     0.478 P 
ATOM     11  O   UNL     1       3.071  -0.156 -12.337  1.00  0.00    -0.228 OA
BRANCH  10  12
ATOM     12  O   UNL     1       4.927  -1.010 -13.998  1.00  0.00    -0.302 OA
ATOM     13  H   UNL     1       5.197  -0.236 -14.537  1.00  0.00     0.223 HD
ENDBRANCH  10  12
BRANCH  10  14
ATOM     14  O   UNL     1       3.212  -2.665 -13.125  1.00  0.00    -0.302 OA
ATOM     15  H   UNL     1       2.428  -3.133 -13.483  1.00  0.00     0.223 HD
ENDBRANCH  10  14
ENDBRANCH   9  10
ENDBRANCH   7   9
BRANCH   7  16
ATOM     16  O   UNL     1       0.705  -0.594 -16.536  1.00  0.00    -0.302 OA
ATOM     17  H   UNL     1       1.009   0.337 -16.603  1.00  0.00     0.223 HD
ENDBRANCH   7  16
ENDBRANCH   6   7
ENDBRANCH   5   6
BRANCH   4  18
ATOM     18  O   UNL     1      -0.993   0.275 -11.839  1.00  0.00    -0.385 OA
ATOM     19  H   UNL     1      -1.671   0.772 -11.352  1.00  0.00     0.211 HD
ENDBRANCH   4  18
BRANCH   3  20
ATOM     20  C   UNL     1      -0.054  -3.706 -10.294  1.00  0.00     0.208 C 
BRANCH  20  21
ATOM     21  O   UNL     1      -0.907  -4.616 -10.969  1.00  0.00    -0.284 OA
BRANCH  21  22
ATOM     22  P   UNL     1      -0.234  -5.772 -11.879  1.00  0.00     0.469 P 
ATOM     23  O   UNL     1      -0.927  -7.102 -11.829  1.00  0.00    -0.228 OA
BRANCH  22  24
ATOM     24  O   UNL     1       1.312  -5.780 -11.411  1.00  0.00    -0.303 OA
ATOM     25  H   UNL     1       1.880  -6.542 -11.657  1.00  0.00     0.223 HD
ENDBRANCH  22  24
BRANCH  22  26
ATOM     26  O   UNL     1      -0.177  -5.089 -13.344  1.00  0.00    -0.303 OA
ATOM     27  H   UNL     1       0.314  -4.247 -13.456  1.00  0.00     0.223 HD
ENDBRANCH  22  26
ENDBRANCH  21  22
ENDBRANCH  20  21
ENDBRANCH   3  20
BRANCH   2  28
ATOM     28  O   UNL     1      -2.190  -1.316  -9.944  1.00  0.00    -0.387 OA
ATOM     29  H   UNL     1      -3.082  -0.992 -10.157  1.00  0.00     0.211 HD
ENDBRANCH   2  28
TORSDOF 14
ENDMDL
MODEL 9
REMARK VINA RESULT:    -5.950      4.614      6.748
REMARK INTER + INTRA:         -11.349
REMARK INTER:                  -9.089
REMARK INTRA:                  -2.260
REMARK UNBOUND:                -1.746
REMARK SMILES O=P(O)(O)OC[C@H]1O[C@H](O[P@@](=O)(O)OP(=O)(O)O)[C@H](O)[C@@H]1O
REMARK SMILES IDX 8 1 21 2 7 3 19 4 9 5 10 6 11 7 12 8 14 9 15 10 16 11 17 12
REMARK SMILES IDX 18 14 13 16 20 18 6 20 5 21 2 22 1 23 3 24 4 26 22 28
REMARK H PARENT 17 13 18 15 13 17 20 19 3 25 4 27 22 29
REMARK Flexibility Score: inf
ROOT
ATOM      1  O   UNL     1      -1.996  -5.423 -11.075  1.00  0.00    -0.341 OA
ATOM      2  C   UNL     1      -0.433  -4.021 -12.168  1.00  0.00     0.179 C 
ATOM      3  C   UNL     1      -1.335  -4.149 -10.947  1.00  0.00     0.179 C 
ATOM      4  C   UNL     1      -0.038  -5.462 -12.402  1.00  0.00     0.202 C 
ATOM      5  C   UNL     1      -1.369  -6.155 -12.146  1.00  0.00     0.293 C 
ENDROOT
BRANCH   5   6
ATOM      6  O   UNL     1      -1.180  -7.525 -11.836  1.00  0.00    -0.253 OA
BRANCH   6   7
ATOM      7  P   UNL     1      -2.456  -8.462 -11.499  1.00  0.00     0.483 P 
ATOM      8  O   UNL     1      -2.120  -9.892 -11.183  1.00  0.00    -0.228 OA
BRANCH   7   9
ATOM      9  O   UNL     1      -3.441  -8.278 -12.768  1.00  0.00    -0.185 OA
BRANCH   9  10
ATOM     10  P   UNL     1      -4.932  -7.665 -12.872  1.00  0.00     0.478 P 
ATOM     11  O   UNL     1      -5.678  -8.041 -14.118  1.00  0.00    -0.228 OA
BRANCH  10  12
ATOM     12  O   UNL     1      -4.692  -6.081 -12.662  1.00  0.00    -0.302 OA
ATOM     13  H   UNL     1      -4.853  -5.690 -11.777  1.00  0.00     0.223 HD
ENDBRANCH  10  12
BRANCH  10  14
ATOM     14  O   UNL     1      -5.623  -8.129 -11.487  1.00  0.00    -0.302 OA
ATOM     15  H   UNL     1      -5.679  -9.086 -11.281  1.00  0.00     0.223 HD
ENDBRANCH  10  14
ENDBRANCH   9  10
ENDBRANCH   7   9
BRANCH   7  16
ATOM     16  O   UNL     1      -3.228  -7.680 -10.313  1.00  0.00    -0.302 OA
ATOM     17  H   UNL     1      -3.700  -6.846 -10.523  1.00  0.00     0.223 HD
ENDBRANCH   7  16
ENDBRANCH   6   7
ENDBRANCH   5   6
BRANCH   4  18
ATOM     18  O   UNL     1       0.923  -5.860 -11.426  1.00  0.00    -0.385 OA
ATOM     19  H   UNL     1       1.018  -6.827 -11.453  1.00  0.00     0.211 HD
ENDBRANCH   4  18
BRANCH   3  20
ATOM     20  C   UNL     1      -2.371  -3.043 -10.847  1.00  0.00     0.208 C 
BRANCH  20  21
ATOM     21  O   UNL     1      -3.645  -3.581 -11.159  1.00  0.00    -0.284 OA
BRANCH  21  22
ATOM     22  P   UNL     1      -4.696  -3.825  -9.952  1.00  0.00     0.469 P 
ATOM     23  O   UNL     1      -6.011  -3.119 -10.103  1.00  0.00    -0.228 OA
BRANCH  22  24
ATOM     24  O   UNL     1      -3.854  -3.443  -8.627  1.00  0.00    -0.303 OA
ATOM     25  H   UNL     1      -3.484  -4.165  -8.074  1.00  0.00     0.223 HD
ENDBRANCH  22  24
BRANCH  22  26
ATOM     26  O   UNL     1      -4.792  -5.438  -9.880  1.00  0.00    -0.303 OA
ATOM     27  H   UNL     1      -5.638  -5.851  -9.604  1.00  0.00     0.223 HD
ENDBRANCH  22  26
ENDBRANCH  21  22
ENDBRANCH  20  21
ENDBRANCH   3  20
BRANCH   2  28
ATOM     28  O   UNL     1       0.665  -3.169 -11.926  1.00  0.00    -0.387 OA
ATOM     29  H   UNL     1       1.362  -3.698 -11.501  1.00  0.00     0.211 HD
ENDBRANCH   2  28
TORSDOF 14
ENDMDL
