MODEL 1
REMARK VINA RESULT:    -9.639      0.000      0.000
REMARK INTER + INTRA:         -16.845
REMARK INTER:                 -15.556
REMARK INTRA:                  -1.289
REMARK UNBOUND:                -1.289
REMARK SMILES O=P(O)(O)OC[C@H]1O[C@H](O[P@@](=O)(O)OP(=O)(O)O)[C@H](O)[C@@H]1O
REMARK SMILES IDX 8 1 21 2 7 3 19 4 9 5 10 6 11 7 12 8 14 9 15 10 16 11 17 12
REMARK SMILES IDX 18 14 13 16 20 18 6 20 5 21 2 22 1 23 3 24 4 26 22 28
REMARK H PARENT 17 13 18 15 13 17 20 19 3 25 4 27 22 29
REMARK Flexibility Score: inf
ROOT
ATOM      1  O   UNL     1      -2.978  -3.504 -11.760  1.00  0.00    -0.341 OA
ATOM      2  C   UNL     1      -4.133  -5.259 -10.669  1.00  0.00     0.179 C 
ATOM      3  C   UNL     1      -2.914  -4.923 -11.520  1.00  0.00     0.179 C 
ATOM      4  C   UNL     1      -4.284  -3.996  -9.850  1.00  0.00     0.202 C 
ATOM      5  C   UNL     1      -4.001  -2.945 -10.914  1.00  0.00     0.293 C 
ENDROOT
BRANCH   5   6
ATOM      6  O   UNL     1      -3.615  -1.715 -10.327  1.00  0.00    -0.253 OA
BRANCH   6   7
ATOM      7  P   UNL     1      -2.239  -0.995 -10.783  1.00  0.00     0.483 P 
ATOM      8  O   UNL     1      -0.987  -1.655 -10.281  1.00  0.00    -0.228 OA
BRANCH   7   9
ATOM      9  O   UNL     1      -2.411   0.543 -10.315  1.00  0.00    -0.185 OA
BRANCH   9  10
ATOM     10  P   UNL     1      -2.112   1.928 -11.092  1.00  0.00     0.478 P 
ATOM     11  O   UNL     1      -1.394   1.770 -12.399  1.00  0.00    -0.228 OA
BRANCH  10  12
ATOM     12  O   UNL     1      -1.339   2.812  -9.982  1.00  0.00    -0.302 OA
ATOM     13  H   UNL     1      -0.909   2.355  -9.227  1.00  0.00     0.223 HD
ENDBRANCH  10  12
BRANCH  10  14
ATOM     14  O   UNL     1      -3.568   2.626 -11.183  1.00  0.00    -0.302 OA
ATOM     15  H   UNL     1      -4.357   2.115 -10.905  1.00  0.00     0.223 HD
ENDBRANCH  10  14
ENDBRANCH   9  10
ENDBRANCH   7   9
BRANCH   7  16
ATOM     16  O   UNL     1      -2.347  -0.907 -12.395  1.00  0.00    -0.302 OA
ATOM     17  H   UNL     1      -3.201  -0.644 -12.800  1.00  0.00     0.223 HD
ENDBRANCH   7  16
ENDBRANCH   6   7
ENDBRANCH   5   6
BRANCH   4  18
ATOM     18  O   UNL     1      -3.280  -3.959  -8.838  1.00  0.00    -0.385 OA
ATOM     19  H   UNL     1      -3.568  -4.504  -8.088  1.00  0.00     0.211 HD
ENDBRANCH   4  18
BRANCH   3  20
ATOM     20  C   UNL     1      -2.884  -5.665 -12.844  1.00  0.00     0.208 C 
BRANCH  20  21
ATOM     21  O   UNL     1      -3.110  -7.044 -12.601  1.00  0.00    -0.284 OA
BRANCH  21  22
ATOM     22  P   UNL     1      -1.845  -7.978 -12.220  1.00  0.00     0.469 P 
ATOM     23  O   UNL     1      -1.874  -8.552 -10.834  1.00  0.00    -0.228 OA
BRANCH  22  24
ATOM     24  O   UNL     1      -0.566  -7.048 -12.557  1.00  0.00    -0.303 OA
ATOM     25  H   UNL     1       0.099  -7.370 -13.203  1.00  0.00     0.223 HD
ENDBRANCH  22  24
BRANCH  22  26
ATOM     26  O   UNL     1      -1.833  -9.072 -13.411  1.00  0.00    -0.303 OA
ATOM     27  H   UNL     1      -1.043  -9.137 -13.989  1.00  0.00     0.223 HD
ENDBRANCH  22  26
ENDBRANCH  21  22
ENDBRANCH  20  21
ENDBRANCH   3  20
BRANCH   2  28
ATOM     28  O   UNL     1      -3.930  -6.415  -9.887  1.00  0.00    -0.387 OA
ATOM     29  H   UNL     1      -3.604  -7.117 -10.475  1.00  0.00     0.211 HD
ENDBRANCH   2  28
TORSDOF 14
REMARK SMILES O=c1[nH]cc(F)c(=O)[nH]1
REMARK SMILES IDX 6 1 8 2 1 3 9 4 3 5 7 6 2 7 5 8 4 9
REMARK H PARENT 9 10 3 11
REMARK Flexibility Score: inf
ROOT
ATOM      1  F   UNL     1       3.203  -0.560 -13.938  1.00  0.00    -0.199 F 
ATOM      2  O   UNL     1       0.620  -0.781 -13.106  1.00  0.00    -0.266 OA
ATOM      3  O   UNL     1       1.372  -5.140 -11.736  1.00  0.00    -0.248 OA
ATOM      4  N   UNL     1       0.971  -2.967 -12.413  1.00  0.00    -0.272 N 
ATOM      5  N   UNL     1       3.093  -3.932 -12.678  1.00  0.00    -0.311 N 
ATOM      6  C   UNL     1       1.357  -1.751 -12.967  1.00  0.00     0.289 A 
ATOM      7  C   UNL     1       1.784  -4.093 -12.238  1.00  0.00     0.325 A 
ATOM      8  C   UNL     1       2.770  -1.711 -13.393  1.00  0.00     0.204 A 
ATOM      9  C   UNL     1       3.559  -2.772 -13.236  1.00  0.00     0.132 A 
ATOM     10  H   UNL     1       0.005  -3.045 -12.103  1.00  0.00     0.175 HD
ATOM     11  H   UNL     1       3.743  -4.707 -12.585  1.00  0.00     0.171 HD
ENDROOT
TORSDOF 0
ENDMDL
MODEL 2
REMARK VINA RESULT:    -9.315      2.272      5.351
REMARK INTER + INTRA:         -16.322
REMARK INTER:                 -14.249
REMARK INTRA:                  -2.073
REMARK UNBOUND:                -1.289
REMARK SMILES O=P(O)(O)OC[C@H]1O[C@H](O[P@@](=O)(O)OP(=O)(O)O)[C@H](O)[C@@H]1O
REMARK SMILES IDX 8 1 21 2 7 3 19 4 9 5 10 6 11 7 12 8 14 9 15 10 16 11 17 12
REMARK SMILES IDX 18 14 13 16 20 18 6 20 5 21 2 22 1 23 3 24 4 26 22 28
REMARK H PARENT 17 13 18 15 13 17 20 19 3 25 4 27 22 29
REMARK Flexibility Score: inf
ROOT
ATOM      1  O   UNL     1      -1.794  -4.744 -10.781  1.00  0.00    -0.341 OA
ATOM      2  C   UNL     1       0.241  -5.166 -11.915  1.00  0.00     0.179 C 
ATOM      3  C   UNL     1      -0.365  -4.675 -10.606  1.00  0.00     0.179 C 
ATOM      4  C   UNL     1      -0.780  -6.193 -12.351  1.00  0.00     0.202 C 
ATOM      5  C   UNL     1      -2.069  -5.465 -11.997  1.00  0.00     0.293 C 
ENDROOT
BRANCH   5   6
ATOM      6  O   UNL     1      -3.148  -6.374 -11.863  1.00  0.00    -0.253 OA
BRANCH   6   7
ATOM      7  P   UNL     1      -4.659  -5.890 -12.183  1.00  0.00     0.483 P 
ATOM      8  O   UNL     1      -5.071  -6.021 -13.622  1.00  0.00    -0.228 OA
BRANCH   7   9
ATOM      9  O   UNL     1      -4.732  -4.380 -11.609  1.00  0.00    -0.185 OA
BRANCH   9  10
ATOM     10  P   UNL     1      -4.984  -3.827 -10.112  1.00  0.00     0.478 P 
ATOM     11  O   UNL     1      -4.394  -2.475  -9.837  1.00  0.00    -0.228 OA
BRANCH  10  12
ATOM     12  O   UNL     1      -4.429  -5.025  -9.180  1.00  0.00    -0.302 OA
ATOM     13  H   UNL     1      -3.803  -4.811  -8.455  1.00  0.00     0.223 HD
ENDBRANCH  10  12
BRANCH  10  14
ATOM     14  O   UNL     1      -6.588  -3.929  -9.942  1.00  0.00    -0.302 OA
ATOM     15  H   UNL     1      -7.086  -3.137  -9.646  1.00  0.00     0.223 HD
ENDBRANCH  10  14
ENDBRANCH   9  10
ENDBRANCH   7   9
BRANCH   7  16
ATOM     16  O   UNL     1      -5.578  -6.726 -11.147  1.00  0.00    -0.302 OA
ATOM     17  H   UNL     1      -5.471  -7.700 -11.098  1.00  0.00     0.223 HD
ENDBRANCH   7  16
ENDBRANCH   6   7
ENDBRANCH   5   6
BRANCH   4  18
ATOM     18  O   UNL     1      -0.643  -7.371 -11.559  1.00  0.00    -0.385 OA
ATOM     19  H   UNL     1      -1.127  -7.249 -10.725  1.00  0.00     0.211 HD
ENDBRANCH   4  18
BRANCH   3  20
ATOM     20  C   UNL     1       0.039  -3.255 -10.253  1.00  0.00     0.208 C 
BRANCH  20  21
ATOM     21  O   UNL     1      -0.033  -2.455 -11.421  1.00  0.00    -0.284 OA
BRANCH  21  22
ATOM     22  P   UNL     1      -1.146  -1.282 -11.485  1.00  0.00     0.469 P 
ATOM     23  O   UNL     1      -0.728  -0.051 -12.234  1.00  0.00    -0.228 OA
BRANCH  22  24
ATOM     24  O   UNL     1      -1.546  -1.047  -9.937  1.00  0.00    -0.303 OA
ATOM     25  H   UNL     1      -2.384  -1.428  -9.599  1.00  0.00     0.223 HD
ENDBRANCH  22  24
BRANCH  22  26
ATOM     26  O   UNL     1      -2.438  -2.043 -12.091  1.00  0.00    -0.303 OA
ATOM     27  H   UNL     1      -3.264  -1.535 -12.237  1.00  0.00     0.223 HD
ENDBRANCH  22  26
ENDBRANCH  21  22
ENDBRANCH  20  21
ENDBRANCH   3  20
BRANCH   2  28
ATOM     28  O   UNL     1       1.533  -5.701 -11.732  1.00  0.00    -0.387 OA
ATOM     29  H   UNL     1       1.733  -6.262 -12.500  1.00  0.00     0.211 HD
ENDBRANCH   2  28
TORSDOF 14
REMARK SMILES O=c1[nH]cc(F)c(=O)[nH]1
REMARK SMILES IDX 6 1 8 2 1 3 9 4 3 5 7 6 2 7 5 8 4 9
REMARK H PARENT 9 10 3 11
REMARK Flexibility Score: inf
ROOT
ATOM      1  F   UNL     1       3.396  -3.244 -12.788  1.00  0.00    -0.199 F 
ATOM      2  O   UNL     1       3.486  -0.527 -12.911  1.00  0.00    -0.266 OA
ATOM      3  O   UNL     1       0.042  -0.496 -16.007  1.00  0.00    -0.248 OA
ATOM      4  N   UNL     1       1.763  -0.484 -14.464  1.00  0.00    -0.272 N 
ATOM      5  N   UNL     1       0.804  -2.505 -15.175  1.00  0.00    -0.311 N 
ATOM      6  C   UNL     1       2.662  -1.110 -13.608  1.00  0.00     0.289 A 
ATOM      7  C   UNL     1       0.811  -1.118 -15.272  1.00  0.00     0.325 A 
ATOM      8  C   UNL     1       2.552  -2.582 -13.598  1.00  0.00     0.204 A 
ATOM      9  C   UNL     1       1.653  -3.203 -14.359  1.00  0.00     0.132 A 
ATOM     10  H   UNL     1       1.799   0.531 -14.508  1.00  0.00     0.175 HD
ATOM     11  H   UNL     1       0.140  -3.034 -15.732  1.00  0.00     0.171 HD
ENDROOT
TORSDOF 0
ENDMDL
MODEL 3
REMARK VINA RESULT:    -8.842      2.553      5.830
REMARK INTER + INTRA:         -15.559
REMARK INTER:                 -14.581
REMARK INTRA:                  -0.978
REMARK UNBOUND:                -1.289
REMARK SMILES O=P(O)(O)OC[C@H]1O[C@H](O[P@@](=O)(O)OP(=O)(O)O)[C@H](O)[C@@H]1O
REMARK SMILES IDX 8 1 21 2 7 3 19 4 9 5 10 6 11 7 12 8 14 9 15 10 16 11 17 12
REMARK SMILES IDX 18 14 13 16 20 18 6 20 5 21 2 22 1 23 3 24 4 26 22 28
REMARK H PARENT 17 13 18 15 13 17 20 19 3 25 4 27 22 29
REMARK Flexibility Score: inf
ROOT
ATOM      1  O   UNL     1      -3.854  -2.368 -11.376  1.00  0.00    -0.341 OA
ATOM      2  C   UNL     1      -1.613  -2.500 -10.627  1.00  0.00     0.179 C 
ATOM      3  C   UNL     1      -2.778  -1.550 -10.876  1.00  0.00     0.179 C 
ATOM      4  C   UNL     1      -2.337  -3.762 -10.214  1.00  0.00     0.202 C 
ATOM      5  C   UNL     1      -3.491  -3.751 -11.206  1.00  0.00     0.293 C 
ENDROOT
BRANCH   5   6
ATOM      6  O   UNL     1      -4.568  -4.548 -10.745  1.00  0.00    -0.253 OA
BRANCH   6   7
ATOM      7  P   UNL     1      -5.376  -5.496 -11.779  1.00  0.00     0.483 P 
ATOM      8  O   UNL     1      -4.844  -6.895 -11.897  1.00  0.00    -0.228 OA
BRANCH   7   9
ATOM      9  O   UNL     1      -5.379  -4.669 -13.168  1.00  0.00    -0.185 OA
BRANCH   9  10
ATOM     10  P   UNL     1      -6.214  -3.363 -13.623  1.00  0.00     0.478 P 
ATOM     11  O   UNL     1      -7.062  -2.755 -12.545  1.00  0.00    -0.228 OA
BRANCH  10  12
ATOM     12  O   UNL     1      -7.019  -3.877 -14.926  1.00  0.00    -0.302 OA
ATOM     13  H   UNL     1      -7.385  -4.788 -14.930  1.00  0.00     0.223 HD
ENDBRANCH  10  12
BRANCH  10  14
ATOM     14  O   UNL     1      -5.079  -2.391 -14.240  1.00  0.00    -0.302 OA
ATOM     15  H   UNL     1      -5.288  -1.866 -15.042  1.00  0.00     0.223 HD
ENDBRANCH  10  14
ENDBRANCH   9  10
ENDBRANCH   7   9
BRANCH   7  16
ATOM     16  O   UNL     1      -6.915  -5.406 -11.289  1.00  0.00    -0.302 OA
ATOM     17  H   UNL     1      -7.110  -5.035 -10.402  1.00  0.00     0.223 HD
ENDBRANCH   7  16
ENDBRANCH   6   7
ENDBRANCH   5   6
BRANCH   4  18
ATOM     18  O   UNL     1      -2.828  -3.618  -8.882  1.00  0.00    -0.385 OA
ATOM     19  H   UNL     1      -3.369  -2.812  -8.831  1.00  0.00     0.211 HD
ENDBRANCH   4  18
BRANCH   3  20
ATOM     20  C   UNL     1      -2.457  -0.458 -11.881  1.00  0.00     0.208 C 
BRANCH  20  21
ATOM     21  O   UNL     1      -3.179   0.712 -11.530  1.00  0.00    -0.284 OA
BRANCH  21  22
ATOM     22  P   UNL     1      -2.384   1.919 -10.802  1.00  0.00     0.469 P 
ATOM     23  O   UNL     1      -2.931   2.322  -9.464  1.00  0.00    -0.228 OA
BRANCH  22  24
ATOM     24  O   UNL     1      -2.354   3.088 -11.917  1.00  0.00    -0.303 OA
ATOM     25  H   UNL     1      -1.848   3.908 -11.732  1.00  0.00     0.223 HD
ENDBRANCH  22  24
BRANCH  22  26
ATOM     26  O   UNL     1      -0.857   1.384 -10.782  1.00  0.00    -0.303 OA
ATOM     27  H   UNL     1      -0.152   1.949 -11.163  1.00  0.00     0.223 HD
ENDBRANCH  22  26
ENDBRANCH  21  22
ENDBRANCH  20  21
ENDBRANCH   3  20
BRANCH   2  28
ATOM     28  O   UNL     1      -0.732  -2.008  -9.640  1.00  0.00    -0.387 OA
ATOM     29  H   UNL     1      -0.591  -1.062  -9.814  1.00  0.00     0.211 HD
ENDBRANCH   2  28
TORSDOF 14
REMARK SMILES O=c1[nH]cc(F)c(=O)[nH]1
REMARK SMILES IDX 6 1 8 2 1 3 9 4 3 5 7 6 2 7 5 8 4 9
REMARK H PARENT 9 10 3 11
REMARK Flexibility Score: inf
ROOT
ATOM      1  F   UNL     1       1.440  -0.965 -16.007  1.00  0.00    -0.199 F 
ATOM      2  O   UNL     1       3.164  -0.528 -13.946  1.00  0.00    -0.266 OA
ATOM      3  O   UNL     1       1.941  -4.545 -11.994  1.00  0.00    -0.248 OA
ATOM      4  N   UNL     1       2.567  -2.535 -12.947  1.00  0.00    -0.272 N 
ATOM      5  N   UNL     1       0.963  -3.902 -13.979  1.00  0.00    -0.311 N 
ATOM      6  C   UNL     1       2.503  -1.561 -13.938  1.00  0.00     0.289 A 
ATOM      7  C   UNL     1       1.830  -3.724 -12.906  1.00  0.00     0.325 A 
ATOM      8  C   UNL     1       1.547  -1.871 -15.018  1.00  0.00     0.204 A 
ATOM      9  C   UNL     1       0.835  -2.996 -14.996  1.00  0.00     0.132 A 
ATOM     10  H   UNL     1       3.212  -2.368 -12.179  1.00  0.00     0.175 HD
ATOM     11  H   UNL     1       0.394  -4.742 -14.018  1.00  0.00     0.171 HD
ENDROOT
TORSDOF 0
ENDMDL
MODEL 4
REMARK VINA RESULT:    -8.824      9.459     11.464
REMARK INTER + INTRA:         -15.529
REMARK INTER:                 -13.920
REMARK INTRA:                  -1.609
REMARK UNBOUND:                -1.289
REMARK SMILES O=P(O)(O)OC[C@H]1O[C@H](O[P@@](=O)(O)OP(=O)(O)O)[C@H](O)[C@@H]1O
REMARK SMILES IDX 8 1 21 2 7 3 19 4 9 5 10 6 11 7 12 8 14 9 15 10 16 11 17 12
REMARK SMILES IDX 18 14 13 16 20 18 6 20 5 21 2 22 1 23 3 24 4 26 22 28
REMARK H PARENT 17 13 18 15 13 17 20 19 3 25 4 27 22 29
REMARK Flexibility Score: inf
ROOT
ATOM      1  O   UNL     1      -0.938  -3.418 -11.350  1.00  0.00    -0.341 OA
ATOM      2  C   UNL     1       0.273  -3.768 -13.353  1.00  0.00     0.179 C 
ATOM      3  C   UNL     1       0.270  -3.018 -12.027  1.00  0.00     0.179 C 
ATOM      4  C   UNL     1      -0.414  -5.060 -12.969  1.00  0.00     0.202 C 
ATOM      5  C   UNL     1      -1.516  -4.525 -12.066  1.00  0.00     0.293 C 
ENDROOT
BRANCH   5   6
ATOM      6  O   UNL     1      -2.007  -5.539 -11.206  1.00  0.00    -0.253 OA
BRANCH   6   7
ATOM      7  P   UNL     1      -3.441  -6.228 -11.503  1.00  0.00     0.483 P 
ATOM      8  O   UNL     1      -3.571  -6.848 -12.865  1.00  0.00    -0.228 OA
BRANCH   7   9
ATOM      9  O   UNL     1      -4.522  -5.065 -11.199  1.00  0.00    -0.185 OA
BRANCH   9  10
ATOM     10  P   UNL     1      -4.721  -4.115  -9.908  1.00  0.00     0.478 P 
ATOM     11  O   UNL     1      -3.942  -2.834  -9.947  1.00  0.00    -0.228 OA
BRANCH  10  12
ATOM     12  O   UNL     1      -4.374  -5.097  -8.672  1.00  0.00    -0.302 OA
ATOM     13  H   UNL     1      -5.110  -5.524  -8.184  1.00  0.00     0.223 HD
ENDBRANCH  10  12
BRANCH  10  14
ATOM     14  O   UNL     1      -6.326  -3.945  -9.814  1.00  0.00    -0.302 OA
ATOM     15  H   UNL     1      -6.831  -4.526  -9.207  1.00  0.00     0.223 HD
ENDBRANCH  10  14
ENDBRANCH   9  10
ENDBRANCH   7   9
BRANCH   7  16
ATOM     16  O   UNL     1      -3.653  -7.262 -10.277  1.00  0.00    -0.302 OA
ATOM     17  H   UNL     1      -3.062  -8.042 -10.207  1.00  0.00     0.223 HD
ENDBRANCH   7  16
ENDBRANCH   6   7
ENDBRANCH   5   6
BRANCH   4  18
ATOM     18  O   UNL     1       0.486  -5.877 -12.222  1.00  0.00    -0.385 OA
ATOM     19  H   UNL     1       0.264  -6.811 -12.374  1.00  0.00     0.211 HD
ENDBRANCH   4  18
BRANCH   3  20
ATOM     20  C   UNL     1       0.289  -1.509 -12.190  1.00  0.00     0.208 C 
BRANCH  20  21
ATOM     21  O   UNL     1      -1.028  -1.062 -12.469  1.00  0.00    -0.284 OA
BRANCH  21  22
ATOM     22  P   UNL     1      -1.778  -0.141 -11.369  1.00  0.00     0.469 P 
ATOM     23  O   UNL     1      -1.383   1.307 -11.379  1.00  0.00    -0.228 OA
BRANCH  22  24
ATOM     24  O   UNL     1      -1.520  -0.918  -9.976  1.00  0.00    -0.303 OA
ATOM     25  H   UNL     1      -0.897  -1.676  -9.962  1.00  0.00     0.223 HD
ENDBRANCH  22  24
BRANCH  22  26
ATOM     26  O   UNL     1      -3.342  -0.424 -11.670  1.00  0.00    -0.303 OA
ATOM     27  H   UNL     1      -3.998   0.276 -11.465  1.00  0.00     0.223 HD
ENDBRANCH  22  26
ENDBRANCH  21  22
ENDBRANCH  20  21
ENDBRANCH   3  20
BRANCH   2  28
ATOM     28  O   UNL     1       1.580  -3.952 -13.853  1.00  0.00    -0.387 OA
ATOM     29  H   UNL     1       1.608  -3.581 -14.751  1.00  0.00     0.211 HD
ENDBRANCH   2  28
TORSDOF 14
REMARK SMILES O=c1[nH]cc(F)c(=O)[nH]1
REMARK SMILES IDX 6 1 8 2 1 3 9 4 3 5 7 6 2 7 5 8 4 9
REMARK H PARENT 9 10 3 11
REMARK Flexibility Score: inf
ROOT
ATOM      1  F   UNL     1       8.534  12.199  -7.437  1.00  0.00    -0.199 F 
ATOM      2  O   UNL     1       6.445  13.278  -6.064  1.00  0.00    -0.266 OA
ATOM      3  O   UNL     1       6.389  16.933  -8.907  1.00  0.00    -0.248 OA
ATOM      4  N   UNL     1       6.397  15.120  -7.473  1.00  0.00    -0.272 N 
ATOM      5  N   UNL     1       7.942  15.262  -9.235  1.00  0.00    -0.311 N 
ATOM      6  C   UNL     1       6.886  13.898  -7.026  1.00  0.00     0.289 A 
ATOM      7  C   UNL     1       6.875  15.853  -8.566  1.00  0.00     0.325 A 
ATOM      8  C   UNL     1       8.017  13.380  -7.821  1.00  0.00     0.204 A 
ATOM      9  C   UNL     1       8.486  14.063  -8.863  1.00  0.00     0.132 A 
ATOM     10  H   UNL     1       5.617  15.520  -6.958  1.00  0.00     0.175 HD
ATOM     11  H   UNL     1       8.343  15.736 -10.038  1.00  0.00     0.171 HD
ENDROOT
TORSDOF 0
ENDMDL
MODEL 5
REMARK VINA RESULT:    -8.814      1.914      2.647
REMARK INTER + INTRA:         -15.514
REMARK INTER:                 -14.092
REMARK INTRA:                  -1.422
REMARK UNBOUND:                -1.289
REMARK SMILES O=P(O)(O)OC[C@H]1O[C@H](O[P@@](=O)(O)OP(=O)(O)O)[C@H](O)[C@@H]1O
REMARK SMILES IDX 8 1 21 2 7 3 19 4 9 5 10 6 11 7 12 8 14 9 15 10 16 11 17 12
REMARK SMILES IDX 18 14 13 16 20 18 6 20 5 21 2 22 1 23 3 24 4 26 22 28
REMARK H PARENT 17 13 18 15 13 17 20 19 3 25 4 27 22 29
REMARK Flexibility Score: inf
ROOT
ATOM      1  O   UNL     1      -3.029  -3.561 -12.086  1.00  0.00    -0.341 OA
ATOM      2  C   UNL     1      -4.336  -4.740 -10.503  1.00  0.00     0.179 C 
ATOM      3  C   UNL     1      -3.185  -4.865 -11.493  1.00  0.00     0.179 C 
ATOM      4  C   UNL     1      -4.169  -3.313 -10.028  1.00  0.00     0.202 C 
ATOM      5  C   UNL     1      -3.834  -2.625 -11.344  1.00  0.00     0.293 C 
ENDROOT
BRANCH   5   6
ATOM      6  O   UNL     1      -3.175  -1.391 -11.122  1.00  0.00    -0.253 OA
BRANCH   6   7
ATOM      7  P   UNL     1      -1.636  -1.199 -11.584  1.00  0.00     0.483 P 
ATOM      8  O   UNL     1      -0.640  -2.009 -10.804  1.00  0.00    -0.228 OA
BRANCH   7   9
ATOM      9  O   UNL     1      -1.388   0.397 -11.519  1.00  0.00    -0.185 OA
BRANCH   9  10
ATOM     10  P   UNL     1      -2.314   1.591 -10.946  1.00  0.00     0.478 P 
ATOM     11  O   UNL     1      -3.521   1.903 -11.780  1.00  0.00    -0.228 OA
BRANCH  10  12
ATOM     12  O   UNL     1      -1.267   2.810 -10.763  1.00  0.00    -0.302 OA
ATOM     13  H   UNL     1      -0.319   2.604 -10.621  1.00  0.00     0.223 HD
ENDBRANCH  10  12
BRANCH  10  14
ATOM     14  O   UNL     1      -2.622   1.129  -9.429  1.00  0.00    -0.302 OA
ATOM     15  H   UNL     1      -1.948   1.293  -8.736  1.00  0.00     0.223 HD
ENDBRANCH  10  14
ENDBRANCH   9  10
ENDBRANCH   7   9
BRANCH   7  16
ATOM     16  O   UNL     1      -1.651  -1.508 -13.171  1.00  0.00    -0.302 OA
ATOM     17  H   UNL     1      -0.811  -1.443 -13.675  1.00  0.00     0.223 HD
ENDBRANCH   7  16
ENDBRANCH   6   7
ENDBRANCH   5   6
BRANCH   4  18
ATOM     18  O   UNL     1      -3.062  -3.233  -9.132  1.00  0.00    -0.385 OA
ATOM     19  H   UNL     1      -2.660  -4.113  -9.048  1.00  0.00     0.211 HD
ENDBRANCH   4  18
BRANCH   3  20
ATOM     20  C   UNL     1      -3.439  -5.894 -12.581  1.00  0.00     0.208 C 
BRANCH  20  21
ATOM     21  O   UNL     1      -4.821  -6.209 -12.598  1.00  0.00    -0.284 OA
BRANCH  21  22
ATOM     22  P   UNL     1      -5.263  -7.752 -12.383  1.00  0.00     0.469 P 
ATOM     23  O   UNL     1      -5.871  -8.411 -13.586  1.00  0.00    -0.228 OA
BRANCH  22  24
ATOM     24  O   UNL     1      -6.206  -7.702 -11.072  1.00  0.00    -0.303 OA
ATOM     25  H   UNL     1      -6.766  -6.911 -10.918  1.00  0.00     0.223 HD
ENDBRANCH  22  24
BRANCH  22  26
ATOM     26  O   UNL     1      -3.906  -8.443 -11.840  1.00  0.00    -0.303 OA
ATOM     27  H   UNL     1      -3.342  -7.949 -11.207  1.00  0.00     0.223 HD
ENDBRANCH  22  26
ENDBRANCH  21  22
ENDBRANCH  20  21
ENDBRANCH   3  20
BRANCH   2  28
ATOM     28  O   UNL     1      -4.246  -5.691  -9.465  1.00  0.00    -0.387 OA
ATOM     29  H   UNL     1      -3.324  -5.707  -9.158  1.00  0.00     0.211 HD
ENDBRANCH   2  28
TORSDOF 14
REMARK SMILES O=c1[nH]cc(F)c(=O)[nH]1
REMARK SMILES IDX 6 1 8 2 1 3 9 4 3 5 7 6 2 7 5 8 4 9
REMARK H PARENT 9 10 3 11
REMARK Flexibility Score: inf
ROOT
ATOM      1  F   UNL     1       0.074  -3.473 -15.724  1.00  0.00    -0.199 F 
ATOM      2  O   UNL     1       1.033  -4.232 -13.292  1.00  0.00    -0.266 OA
ATOM      3  O   UNL     1       3.494  -0.322 -12.978  1.00  0.00    -0.248 OA
ATOM      4  N   UNL     1       2.276  -2.281 -13.111  1.00  0.00    -0.272 N 
ATOM      5  N   UNL     1       2.198  -0.702 -14.845  1.00  0.00    -0.311 N 
ATOM      6  C   UNL     1       1.400  -3.154 -13.748  1.00  0.00     0.289 A 
ATOM      7  C   UNL     1       2.714  -1.045 -13.601  1.00  0.00     0.325 A 
ATOM      8  C   UNL     1       0.925  -2.672 -15.059  1.00  0.00     0.204 A 
ATOM      9  C   UNL     1       1.331  -1.499 -15.542  1.00  0.00     0.132 A 
ATOM     10  H   UNL     1       2.632  -2.568 -12.203  1.00  0.00     0.175 HD
ATOM     11  H   UNL     1       2.471   0.182 -15.265  1.00  0.00     0.171 HD
ENDROOT
TORSDOF 0
ENDMDL
MODEL 6
REMARK VINA RESULT:    -8.590      2.820      5.268
REMARK INTER + INTRA:         -15.152
REMARK INTER:                 -12.849
REMARK INTRA:                  -2.303
REMARK UNBOUND:                -1.289
REMARK SMILES O=P(O)(O)OC[C@H]1O[C@H](O[P@@](=O)(O)OP(=O)(O)O)[C@H](O)[C@@H]1O
REMARK SMILES IDX 8 1 21 2 7 3 19 4 9 5 10 6 11 7 12 8 14 9 15 10 16 11 17 12
REMARK SMILES IDX 18 14 13 16 20 18 6 20 5 21 2 22 1 23 3 24 4 26 22 28
REMARK H PARENT 17 13 18 15 13 17 20 19 3 25 4 27 22 29
REMARK Flexibility Score: inf
ROOT
ATOM      1  O   UNL     1      -1.830  -3.438 -12.283  1.00  0.00    -0.341 OA
ATOM      2  C   UNL     1      -2.051  -1.612 -10.793  1.00  0.00     0.179 C 
ATOM      3  C   UNL     1      -1.410  -2.981 -10.983  1.00  0.00     0.179 C 
ATOM      4  C   UNL     1      -2.057  -1.085 -12.211  1.00  0.00     0.202 C 
ATOM      5  C   UNL     1      -2.464  -2.341 -12.968  1.00  0.00     0.293 C 
ENDROOT
BRANCH   5   6
ATOM      6  O   UNL     1      -2.093  -2.257 -14.332  1.00  0.00    -0.253 OA
BRANCH   6   7
ATOM      7  P   UNL     1      -2.431  -3.478 -15.340  1.00  0.00     0.483 P 
ATOM      8  O   UNL     1      -2.472  -3.102 -16.793  1.00  0.00    -0.228 OA
BRANCH   7   9
ATOM      9  O   UNL     1      -3.814  -4.098 -14.777  1.00  0.00    -0.185 OA
BRANCH   9  10
ATOM     10  P   UNL     1      -4.185  -5.592 -14.289  1.00  0.00     0.478 P 
ATOM     11  O   UNL     1      -4.246  -6.613 -15.386  1.00  0.00    -0.228 OA
BRANCH  10  12
ATOM     12  O   UNL     1      -5.561  -5.378 -13.468  1.00  0.00    -0.302 OA
ATOM     13  H   UNL     1      -6.379  -5.154 -13.961  1.00  0.00     0.223 HD
ENDBRANCH  10  12
BRANCH  10  14
ATOM     14  O   UNL     1      -3.097  -5.887 -13.130  1.00  0.00    -0.302 OA
ATOM     15  H   UNL     1      -3.083  -5.313 -12.335  1.00  0.00     0.223 HD
ENDBRANCH  10  14
ENDBRANCH   9  10
ENDBRANCH   7   9
BRANCH   7  16
ATOM     16  O   UNL     1      -1.339  -4.615 -14.975  1.00  0.00    -0.302 OA
ATOM     17  H   UNL     1      -0.404  -4.350 -14.845  1.00  0.00     0.223 HD
ENDBRANCH   7  16
ENDBRANCH   6   7
ENDBRANCH   5   6
BRANCH   4  18
ATOM     18  O   UNL     1      -0.737  -0.690 -12.581  1.00  0.00    -0.385 OA
ATOM     19  H   UNL     1      -0.098  -1.268 -12.132  1.00  0.00     0.211 HD
ENDBRANCH   4  18
BRANCH   3  20
ATOM     20  C   UNL     1      -1.826  -3.990  -9.927  1.00  0.00     0.208 C 
BRANCH  20  21
ATOM     21  O   UNL     1      -2.810  -4.849 -10.478  1.00  0.00    -0.284 OA
BRANCH  21  22
ATOM     22  P   UNL     1      -4.328  -4.735  -9.928  1.00  0.00     0.469 P 
ATOM     23  O   UNL     1      -4.991  -3.410 -10.166  1.00  0.00    -0.228 OA
BRANCH  22  24
ATOM     24  O   UNL     1      -4.210  -5.181  -8.379  1.00  0.00    -0.303 OA
ATOM     25  H   UNL     1      -4.668  -4.648  -7.694  1.00  0.00     0.223 HD
ENDBRANCH  22  24
BRANCH  22  26
ATOM     26  O   UNL     1      -5.059  -5.998 -10.625  1.00  0.00    -0.303 OA
ATOM     27  H   UNL     1      -5.746  -5.833 -11.306  1.00  0.00     0.223 HD
ENDBRANCH  22  26
ENDBRANCH  21  22
ENDBRANCH  20  21
ENDBRANCH   3  20
BRANCH   2  28
ATOM     28  O   UNL     1      -1.319  -0.805  -9.896  1.00  0.00    -0.387 OA
ATOM     29  H   UNL     1      -0.380  -1.044  -9.982  1.00  0.00     0.211 HD
ENDBRANCH   2  28
TORSDOF 14
REMARK SMILES O=c1[nH]cc(F)c(=O)[nH]1
REMARK SMILES IDX 6 1 8 2 1 3 9 4 3 5 7 6 2 7 5 8 4 9
REMARK H PARENT 9 10 3 11
REMARK Flexibility Score: inf
ROOT
ATOM      1  F   UNL     1       3.615  -2.968 -12.507  1.00  0.00    -0.199 F 
ATOM      2  O   UNL     1       1.330  -4.200 -13.328  1.00  0.00    -0.266 OA
ATOM      3  O   UNL     1       0.403  -0.691 -16.205  1.00  0.00    -0.248 OA
ATOM      4  N   UNL     1       0.842  -2.454 -14.776  1.00  0.00    -0.272 N 
ATOM      5  N   UNL     1       2.307  -0.625 -14.908  1.00  0.00    -0.311 N 
ATOM      6  C   UNL     1       1.610  -3.113 -13.821  1.00  0.00     0.289 A 
ATOM      7  C   UNL     1       1.132  -1.215 -15.360  1.00  0.00     0.325 A 
ATOM      8  C   UNL     1       2.830  -2.381 -13.429  1.00  0.00     0.204 A 
ATOM      9  C   UNL     1       3.122  -1.201 -13.972  1.00  0.00     0.132 A 
ATOM     10  H   UNL     1      -0.010  -2.917 -15.081  1.00  0.00     0.175 HD
ATOM     11  H   UNL     1       2.583   0.276 -15.287  1.00  0.00     0.171 HD
ENDROOT
TORSDOF 0
ENDMDL
MODEL 7
REMARK VINA RESULT:    -8.589      9.278     10.297
REMARK INTER + INTRA:         -15.151
REMARK INTER:                 -13.502
REMARK INTRA:                  -1.648
REMARK UNBOUND:                -1.289
REMARK SMILES O=P(O)(O)OC[C@H]1O[C@H](O[P@@](=O)(O)OP(=O)(O)O)[C@H](O)[C@@H]1O
REMARK SMILES IDX 8 1 21 2 7 3 19 4 9 5 10 6 11 7 12 8 14 9 15 10 16 11 17 12
REMARK SMILES IDX 18 14 13 16 20 18 6 20 5 21 2 22 1 23 3 24 4 26 22 28
REMARK H PARENT 17 13 18 15 13 17 20 19 3 25 4 27 22 29
REMARK Flexibility Score: inf
ROOT
ATOM      1  O   UNL     1      -1.518  -3.695 -12.129  1.00  0.00    -0.341 OA
ATOM      2  C   UNL     1       0.152  -5.197 -11.381  1.00  0.00     0.179 C 
ATOM      3  C   UNL     1      -0.817  -4.893 -12.517  1.00  0.00     0.179 C 
ATOM      4  C   UNL     1       0.504  -3.804 -10.907  1.00  0.00     0.202 C 
ATOM      5  C   UNL     1      -0.864  -3.139 -10.973  1.00  0.00     0.293 C 
ENDROOT
BRANCH   5   6
ATOM      6  O   UNL     1      -0.743  -1.729 -11.035  1.00  0.00    -0.253 OA
BRANCH   6   7
ATOM      7  P   UNL     1      -1.253  -0.930 -12.347  1.00  0.00     0.483 P 
ATOM      8  O   UNL     1      -0.426  -1.152 -13.581  1.00  0.00    -0.228 OA
BRANCH   7   9
ATOM      9  O   UNL     1      -1.336   0.614 -11.875  1.00  0.00    -0.185 OA
BRANCH   9  10
ATOM     10  P   UNL     1      -2.329   1.354 -10.837  1.00  0.00     0.478 P 
ATOM     11  O   UNL     1      -1.741   2.552 -10.153  1.00  0.00    -0.228 OA
BRANCH  10  12
ATOM     12  O   UNL     1      -2.791   0.156  -9.855  1.00  0.00    -0.302 OA
ATOM     13  H   UNL     1      -3.746  -0.054  -9.780  1.00  0.00     0.223 HD
ENDBRANCH  10  12
BRANCH  10  14
ATOM     14  O   UNL     1      -3.648   1.643 -11.726  1.00  0.00    -0.302 OA
ATOM     15  H   UNL     1      -4.245   0.896 -11.947  1.00  0.00     0.223 HD
ENDBRANCH  10  14
ENDBRANCH   9  10
ENDBRANCH   7   9
BRANCH   7  16
ATOM     16  O   UNL     1      -2.806  -1.355 -12.499  1.00  0.00    -0.302 OA
ATOM     17  H   UNL     1      -3.023  -2.283 -12.734  1.00  0.00     0.223 HD
ENDBRANCH   7  16
ENDBRANCH   6   7
ENDBRANCH   5   6
BRANCH   4  18
ATOM     18  O   UNL     1       1.397  -3.193 -11.836  1.00  0.00    -0.385 OA
ATOM     19  H   UNL     1       1.878  -2.477 -11.387  1.00  0.00     0.211 HD
ENDBRANCH   4  18
BRANCH   3  20
ATOM     20  C   UNL     1      -1.814  -6.009 -12.770  1.00  0.00     0.208 C 
BRANCH  20  21
ATOM     21  O   UNL     1      -1.589  -7.045 -11.828  1.00  0.00    -0.284 OA
BRANCH  21  22
ATOM     22  P   UNL     1      -2.861  -7.892 -11.294  1.00  0.00     0.469 P 
ATOM     23  O   UNL     1      -3.750  -8.446 -12.369  1.00  0.00    -0.228 OA
BRANCH  22  24
ATOM     24  O   UNL     1      -3.580  -6.889 -10.251  1.00  0.00    -0.303 OA
ATOM     25  H   UNL     1      -4.150  -7.264  -9.546  1.00  0.00     0.223 HD
ENDBRANCH  22  24
BRANCH  22  26
ATOM     26  O   UNL     1      -2.178  -9.001 -10.335  1.00  0.00    -0.303 OA
ATOM     27  H   UNL     1      -2.424  -9.943 -10.450  1.00  0.00     0.223 HD
ENDBRANCH  22  26
ENDBRANCH  21  22
ENDBRANCH  20  21
ENDBRANCH   3  20
BRANCH   2  28
ATOM     28  O   UNL     1       1.268  -5.939 -11.823  1.00  0.00    -0.387 OA
ATOM     29  H   UNL     1       1.728  -5.409 -12.495  1.00  0.00     0.211 HD
ENDBRANCH   2  28
TORSDOF 14
REMARK SMILES O=c1[nH]cc(F)c(=O)[nH]1
REMARK SMILES IDX 6 1 8 2 1 3 9 4 3 5 7 6 2 7 5 8 4 9
REMARK H PARENT 9 10 3 11
REMARK Flexibility Score: inf
ROOT
ATOM      1  F   UNL     1       7.186  12.010  -5.868  1.00  0.00    -0.199 F 
ATOM      2  O   UNL     1       8.824  12.259  -8.028  1.00  0.00    -0.266 OA
ATOM      3  O   UNL     1       6.814  16.273  -9.163  1.00  0.00    -0.248 OA
ATOM      4  N   UNL     1       7.833  14.271  -8.619  1.00  0.00    -0.272 N 
ATOM      5  N   UNL     1       6.089  15.126  -7.301  1.00  0.00    -0.311 N 
ATOM      6  C   UNL     1       7.998  13.142  -7.824  1.00  0.00     0.289 A 
ATOM      7  C   UNL     1       6.903  15.298  -8.415  1.00  0.00     0.325 A 
ATOM      8  C   UNL     1       7.074  13.081  -6.675  1.00  0.00     0.204 A 
ATOM      9  C   UNL     1       6.182  14.047  -6.465  1.00  0.00     0.132 A 
ATOM     10  H   UNL     1       8.446  14.361  -9.424  1.00  0.00     0.175 HD
ATOM     11  H   UNL     1       5.389  15.831  -7.089  1.00  0.00     0.171 HD
ENDROOT
TORSDOF 0
ENDMDL
MODEL 8
REMARK VINA RESULT:    -8.533     13.116     15.906
REMARK INTER + INTRA:         -15.061
REMARK INTER:                 -13.541
REMARK INTRA:                  -1.520
REMARK UNBOUND:                -1.289
REMARK SMILES O=P(O)(O)OC[C@H]1O[C@H](O[P@@](=O)(O)OP(=O)(O)O)[C@H](O)[C@@H]1O
REMARK SMILES IDX 8 1 21 2 7 3 19 4 9 5 10 6 11 7 12 8 14 9 15 10 16 11 17 12
REMARK SMILES IDX 18 14 13 16 20 18 6 20 5 21 2 22 1 23 3 24 4 26 22 28
REMARK H PARENT 17 13 18 15 13 17 20 19 3 25 4 27 22 29
REMARK Flexibility Score: inf
ROOT
ATOM      1  O   UNL     1       0.296  -2.458 -12.250  1.00  0.00    -0.341 OA
ATOM      2  C   UNL     1       0.708  -4.786 -12.130  1.00  0.00     0.179 C 
ATOM      3  C   UNL     1       1.366  -3.422 -12.298  1.00  0.00     0.179 C 
ATOM      4  C   UNL     1      -0.448  -4.450 -11.214  1.00  0.00     0.202 C 
ATOM      5  C   UNL     1      -0.903  -3.130 -11.822  1.00  0.00     0.293 C 
ENDROOT
BRANCH   5   6
ATOM      6  O   UNL     1      -1.654  -2.372 -10.890  1.00  0.00    -0.253 OA
BRANCH   6   7
ATOM      7  P   UNL     1      -3.154  -1.889 -11.260  1.00  0.00     0.483 P 
ATOM      8  O   UNL     1      -3.876  -2.771 -12.238  1.00  0.00    -0.228 OA
BRANCH   7   9
ATOM      9  O   UNL     1      -2.978  -0.359 -11.753  1.00  0.00    -0.185 OA
BRANCH   9  10
ATOM     10  P   UNL     1      -2.064   0.842 -11.177  1.00  0.00     0.478 P 
ATOM     11  O   UNL     1      -2.439   2.207 -11.672  1.00  0.00    -0.228 OA
BRANCH  10  12
ATOM     12  O   UNL     1      -0.563   0.365 -11.538  1.00  0.00    -0.302 OA
ATOM     13  H   UNL     1      -0.183  -0.406 -11.065  1.00  0.00     0.223 HD
ENDBRANCH  10  12
BRANCH  10  14
ATOM     14  O   UNL     1      -2.149   0.639  -9.575  1.00  0.00    -0.302 OA
ATOM     15  H   UNL     1      -2.587  -0.163  -9.221  1.00  0.00     0.223 HD
ENDBRANCH  10  14
ENDBRANCH   9  10
ENDBRANCH   7   9
BRANCH   7  16
ATOM     16  O   UNL     1      -3.893  -1.735  -9.829  1.00  0.00    -0.302 OA
ATOM     17  H   UNL     1      -4.853  -1.537  -9.810  1.00  0.00     0.223 HD
ENDBRANCH   7  16
ENDBRANCH   6   7
ENDBRANCH   5   6
BRANCH   4  18
ATOM     18  O   UNL     1       0.036  -4.244  -9.888  1.00  0.00    -0.385 OA
ATOM     19  H   UNL     1       0.198  -5.108  -9.474  1.00  0.00     0.211 HD
ENDBRANCH   4  18
BRANCH   3  20
ATOM     20  C   UNL     1       2.124  -3.279 -13.606  1.00  0.00     0.208 C 
BRANCH  20  21
ATOM     21  O   UNL     1       3.377  -2.667 -13.344  1.00  0.00    -0.284 OA
BRANCH  21  22
ATOM     22  P   UNL     1       3.507  -1.065 -13.536  1.00  0.00     0.469 P 
ATOM     23  O   UNL     1       3.093  -0.248 -12.347  1.00  0.00    -0.228 OA
BRANCH  22  24
ATOM     24  O   UNL     1       2.686  -0.772 -14.896  1.00  0.00    -0.303 OA
ATOM     25  H   UNL     1       2.251  -1.520 -15.360  1.00  0.00     0.223 HD
ENDBRANCH  22  24
BRANCH  22  26
ATOM     26  O   UNL     1       5.050  -0.881 -13.985  1.00  0.00    -0.303 OA
ATOM     27  H   UNL     1       5.758  -1.034 -13.324  1.00  0.00     0.223 HD
ENDBRANCH  22  26
ENDBRANCH  21  22
ENDBRANCH  20  21
ENDBRANCH   3  20
BRANCH   2  28
ATOM     28  O   UNL     1       1.597  -5.738 -11.587  1.00  0.00    -0.387 OA
ATOM     29  H   UNL     1       2.502  -5.429 -11.760  1.00  0.00     0.211 HD
ENDBRANCH   2  28
TORSDOF 14
REMARK SMILES O=c1[nH]cc(F)c(=O)[nH]1
REMARK SMILES IDX 6 1 8 2 1 3 9 4 3 5 7 6 2 7 5 8 4 9
REMARK H PARENT 9 10 3 11
REMARK Flexibility Score: inf
ROOT
ATOM      1  F   UNL     1     -18.874   0.769   5.379  1.00  0.00    -0.199 F 
ATOM      2  O   UNL     1     -21.107  -0.345   6.465  1.00  0.00    -0.266 OA
ATOM      3  O   UNL     1     -19.631  -4.578   5.302  1.00  0.00    -0.248 OA
ATOM      4  N   UNL     1     -20.391  -2.476   5.892  1.00  0.00    -0.272 N 
ATOM      5  N   UNL     1     -18.341  -2.741   4.780  1.00  0.00    -0.311 N 
ATOM      6  C   UNL     1     -20.277  -1.091   5.957  1.00  0.00     0.289 A 
ATOM      7  C   UNL     1     -19.464  -3.357   5.321  1.00  0.00     0.325 A 
ATOM      8  C   UNL     1     -19.041  -0.565   5.347  1.00  0.00     0.204 A 
ATOM      9  C   UNL     1     -18.148  -1.387   4.799  1.00  0.00     0.132 A 
ATOM     10  H   UNL     1     -21.226  -2.889   6.299  1.00  0.00     0.175 HD
ATOM     11  H   UNL     1     -17.625  -3.316   4.347  1.00  0.00     0.171 HD
ENDROOT
TORSDOF 0
ENDMDL
MODEL 9
REMARK VINA RESULT:    -8.486      8.150     10.648
REMARK INTER + INTRA:         -14.984
REMARK INTER:                 -13.334
REMARK INTRA:                  -1.650
REMARK UNBOUND:                -1.289
REMARK SMILES O=P(O)(O)OC[C@H]1O[C@H](O[P@@](=O)(O)OP(=O)(O)O)[C@H](O)[C@@H]1O
REMARK SMILES IDX 8 1 21 2 7 3 19 4 9 5 10 6 11 7 12 8 14 9 15 10 16 11 17 12
REMARK SMILES IDX 18 14 13 16 20 18 6 20 5 21 2 22 1 23 3 24 4 26 22 28
REMARK H PARENT 17 13 18 15 13 17 20 19 3 25 4 27 22 29
REMARK Flexibility Score: inf
ROOT
ATOM      1  O   UNL     1      -0.775  -3.557 -11.716  1.00  0.00    -0.341 OA
ATOM      2  C   UNL     1       1.320  -4.194 -12.614  1.00  0.00     0.179 C 
ATOM      3  C   UNL     1       0.568  -3.073 -11.907  1.00  0.00     0.179 C 
ATOM      4  C   UNL     1       0.649  -5.419 -12.033  1.00  0.00     0.202 C 
ATOM      5  C   UNL     1      -0.803  -4.961 -12.035  1.00  0.00     0.293 C 
ENDROOT
BRANCH   5   6
ATOM      6  O   UNL     1      -1.577  -5.717 -11.120  1.00  0.00    -0.253 OA
BRANCH   6   7
ATOM      7  P   UNL     1      -3.128  -6.045 -11.448  1.00  0.00     0.483 P 
ATOM      8  O   UNL     1      -3.404  -6.415 -12.877  1.00  0.00    -0.228 OA
BRANCH   7   9
ATOM      9  O   UNL     1      -3.936  -4.742 -10.934  1.00  0.00    -0.185 OA
BRANCH   9  10
ATOM     10  P   UNL     1      -3.866  -3.935  -9.536  1.00  0.00     0.478 P 
ATOM     11  O   UNL     1      -4.740  -2.718  -9.471  1.00  0.00    -0.228 OA
BRANCH  10  12
ATOM     12  O   UNL     1      -2.284  -3.661  -9.350  1.00  0.00    -0.302 OA
ATOM     13  H   UNL     1      -1.911  -2.807  -9.658  1.00  0.00     0.223 HD
ENDBRANCH  10  12
BRANCH  10  14
ATOM     14  O   UNL     1      -4.184  -5.073  -8.432  1.00  0.00    -0.302 OA
ATOM     15  H   UNL     1      -3.929  -6.001  -8.620  1.00  0.00     0.223 HD
ENDBRANCH  10  14
ENDBRANCH   9  10
ENDBRANCH   7   9
BRANCH   7  16
ATOM     16  O   UNL     1      -3.535  -7.183 -10.373  1.00  0.00    -0.302 OA
ATOM     17  H   UNL     1      -4.251  -7.814 -10.599  1.00  0.00     0.223 HD
ENDBRANCH   7  16
ENDBRANCH   6   7
ENDBRANCH   5   6
BRANCH   4  18
ATOM     18  O   UNL     1       1.101  -5.624 -10.696  1.00  0.00    -0.385 OA
ATOM     19  H   UNL     1       0.971  -4.804 -10.190  1.00  0.00     0.211 HD
ENDBRANCH   4  18
BRANCH   3  20
ATOM     20  C   UNL     1       0.538  -1.778 -12.698  1.00  0.00     0.208 C 
BRANCH  20  21
ATOM     21  O   UNL     1       0.364  -0.696 -11.799  1.00  0.00    -0.284 OA
BRANCH  21  22
ATOM     22  P   UNL     1      -1.143  -0.262 -11.397  1.00  0.00     0.469 P 
ATOM     23  O   UNL     1      -2.193  -0.599 -12.415  1.00  0.00    -0.228 OA
BRANCH  22  24
ATOM     24  O   UNL     1      -1.008   1.307 -11.037  1.00  0.00    -0.303 OA
ATOM     25  H   UNL     1      -1.157   1.972 -11.743  1.00  0.00     0.223 HD
ENDBRANCH  22  24
BRANCH  22  26
ATOM     26  O   UNL     1      -1.345  -0.960  -9.952  1.00  0.00    -0.303 OA
ATOM     27  H   UNL     1      -2.177  -0.796  -9.458  1.00  0.00     0.223 HD
ENDBRANCH  22  26
ENDBRANCH  21  22
ENDBRANCH  20  21
ENDBRANCH   3  20
BRANCH   2  28
ATOM     28  O   UNL     1       2.707  -4.141 -12.363  1.00  0.00    -0.387 OA
ATOM     29  H   UNL     1       3.064  -3.367 -12.831  1.00  0.00     0.211 HD
ENDBRANCH   2  28
TORSDOF 14
REMARK SMILES O=c1[nH]cc(F)c(=O)[nH]1
REMARK SMILES IDX 6 1 8 2 1 3 9 4 3 5 7 6 2 7 5 8 4 9
REMARK H PARENT 9 10 3 11
REMARK Flexibility Score: inf
ROOT
ATOM      1  F   UNL     1      -1.858 -13.674  -0.890  1.00  0.00    -0.199 F 
ATOM      2  O   UNL     1       0.444 -12.956   0.373  1.00  0.00    -0.266 OA
ATOM      3  O   UNL     1       2.780 -16.258  -1.881  1.00  0.00    -0.248 OA
ATOM      4  N   UNL     1       1.636 -14.604  -0.742  1.00  0.00    -0.272 N 
ATOM      5  N   UNL     1       0.524 -15.996  -2.270  1.00  0.00    -0.311 N 
ATOM      6  C   UNL     1       0.489 -13.884  -0.428  1.00  0.00     0.289 A 
ATOM      7  C   UNL     1       1.724 -15.666  -1.651  1.00  0.00     0.325 A 
ATOM      8  C   UNL     1      -0.715 -14.333  -1.152  1.00  0.00     0.204 A 
ATOM      9  C   UNL     1      -0.652 -15.342  -2.019  1.00  0.00     0.132 A 
ATOM     10  H   UNL     1       2.494 -14.332  -0.269  1.00  0.00     0.175 HD
ATOM     11  H   UNL     1       0.509 -16.757  -2.941  1.00  0.00     0.171 HD
ENDROOT
TORSDOF 0
ENDMDL
