REMARK SMILES O=c1[nH]cc(F)c(=O)[nH]1
REMARK SMILES IDX 6 1 8 2 1 3 9 4 3 5 7 6 2 7 5 8 4 9
REMARK H PARENT 9 10 3 11
REMARK Flexibility Score: inf
ROOT
ATOM      1  F   UNL     1      -2.455  -0.838  -0.001  1.00  0.00    -0.199 F 
ATOM      2  O   UNL     1      -1.605   1.748  -0.000  1.00  0.00    -0.266 OA
ATOM      3  O   UNL     1       2.812   0.357  -0.001  1.00  0.00    -0.248 OA
ATOM      4  N   UNL     1       0.616   1.077   0.001  1.00  0.00    -0.272 N 
ATOM      5  N   UNL     1       1.126  -1.214   0.000  1.00  0.00    -0.311 N 
ATOM      6  C   UNL     1      -0.758   0.861   0.000  1.00  0.00     0.289 A 
ATOM      7  C   UNL     1       1.609   0.090   0.000  1.00  0.00     0.325 A 
ATOM      8  C   UNL     1      -1.138  -0.565   0.000  1.00  0.00     0.204 A 
ATOM      9  C   UNL     1      -0.208  -1.518   0.000  1.00  0.00     0.132 A 
ATOM     10  H   UNL     1       0.930   2.044   0.001  1.00  0.00     0.175 HD
ATOM     11  H   UNL     1       1.788  -1.984  -0.000  1.00  0.00     0.171 HD
ENDROOT
TORSDOF 0
