REMARK SMILES O=P(O)(O)OC[C@H]1O[C@H](O[P@@](=O)(O)OP(=O)(O)O)[C@H](O)[C@@H]1O
REMARK SMILES IDX 8 1 21 2 7 3 19 4 9 5 10 6 11 7 12 8 14 9 15 10 16 11 17 12
REMARK SMILES IDX 18 14 13 16 20 18 6 20 5 21 2 22 1 23 3 24 4 26 22 28
REMARK H PARENT 17 13 18 15 13 17 20 19 3 25 4 27 22 29
REMARK Flexibility Score: inf
ROOT
ATOM      1  O   UNL     1       0.693   0.044  -0.598  1.00  0.00    -0.341 OA
ATOM      2  C   UNL     1       0.869   2.177   0.413  1.00  0.00     0.179 C 
ATOM      3  C   UNL     1       1.639   1.100  -0.341  1.00  0.00     0.179 C 
ATOM      4  C   UNL     1      -0.510   2.040  -0.194  1.00  0.00     0.202 C 
ATOM      5  C   UNL     1      -0.625   0.524  -0.271  1.00  0.00     0.293 C 
ENDROOT
BRANCH   5   6
ATOM      6  O   UNL     1      -1.602   0.134  -1.220  1.00  0.00    -0.253 OA
BRANCH   6   7
ATOM      7  P   UNL     1      -2.383  -1.273  -1.047  1.00  0.00     0.483 P 
ATOM      8  O   UNL     1      -3.392  -1.569  -2.119  1.00  0.00    -0.228 OA
BRANCH   7   9
ATOM      9  O   UNL     1      -3.001  -1.213   0.446  1.00  0.00    -0.185 OA
BRANCH   9  10
ATOM     10  P   UNL     1      -4.139  -0.261   1.085  1.00  0.00     0.478 P 
ATOM     11  O   UNL     1      -3.825   1.205   1.044  1.00  0.00    -0.228 OA
BRANCH  10  12
ATOM     12  O   UNL     1      -4.348  -0.881   2.563  1.00  0.00    -0.302 OA
ATOM     13  H   UNL     1      -4.940  -0.417   3.193  1.00  0.00     0.223 HD
ENDBRANCH  10  12
BRANCH  10  14
ATOM     14  O   UNL     1      -5.480  -0.703   0.298  1.00  0.00    -0.302 OA
ATOM     15  H   UNL     1      -6.310  -0.205   0.457  1.00  0.00     0.223 HD
ENDBRANCH  10  14
ENDBRANCH   9  10
ENDBRANCH   7   9
BRANCH   7  16
ATOM     16  O   UNL     1      -1.205  -2.374  -0.917  1.00  0.00    -0.302 OA
ATOM     17  H   UNL     1      -0.761  -2.692  -1.732  1.00  0.00     0.223 HD
ENDBRANCH   7  16
ENDBRANCH   6   7
ENDBRANCH   5   6
BRANCH   4  18
ATOM     18  O   UNL     1      -0.515   2.604  -1.504  1.00  0.00    -0.385 OA
ATOM     19  H   UNL     1      -0.031   2.012  -2.104  1.00  0.00     0.211 HD
ENDBRANCH   4  18
BRANCH   3  20
ATOM     20  C   UNL     1       2.820   0.550   0.439  1.00  0.00     0.208 C 
BRANCH  20  21
ATOM     21  O   UNL     1       3.459  -0.447  -0.341  1.00  0.00    -0.284 OA
BRANCH  21  22
ATOM     22  P   UNL     1       4.757  -1.193   0.274  1.00  0.00     0.469 P 
ATOM     23  O   UNL     1       5.372  -2.233  -0.616  1.00  0.00    -0.228 OA
BRANCH  22  24
ATOM     24  O   UNL     1       4.248  -1.727   1.712  1.00  0.00    -0.303 OA
ATOM     25  H   UNL     1       4.851  -2.279   2.255  1.00  0.00     0.223 HD
ENDBRANCH  22  24
BRANCH  22  26
ATOM     26  O   UNL     1       5.732   0.039   0.658  1.00  0.00    -0.303 OA
ATOM     27  H   UNL     1       6.640  -0.155   0.974  1.00  0.00     0.223 HD
ENDBRANCH  22  26
ENDBRANCH  21  22
ENDBRANCH  20  21
ENDBRANCH   3  20
BRANCH   2  28
ATOM     28  O   UNL     1       1.437   3.456   0.234  1.00  0.00    -0.387 OA
ATOM     29  H   UNL     1       2.341   3.431   0.591  1.00  0.00     0.211 HD
ENDBRANCH   2  28
TORSDOF 14
