MODEL 1
REMARK VINA RESULT:    -9.580      0.000      0.000
REMARK INTER + INTRA:         -16.974
REMARK INTER:                 -15.460
REMARK INTRA:                  -1.514
REMARK UNBOUND:                -1.514
REMARK SMILES O=P(O)(O)OC[C@H]1O[C@H](O[P@@](=O)(O)OP(=O)(O)O)[C@H](O)[C@@H]1O
REMARK SMILES IDX 8 1 21 2 7 3 19 4 9 5 10 6 11 7 12 8 14 9 15 10 16 11 17 12
REMARK SMILES IDX 18 14 13 16 20 18 6 20 5 21 2 22 1 23 3 24 4 26 22 28
REMARK H PARENT 17 13 18 15 13 17 20 19 3 25 4 27 22 29
REMARK Flexibility Score: inf
ROOT
ATOM      1  O   UNL     1      -3.749  61.986  38.184  1.00  0.00    -0.341 OA
ATOM      2  C   UNL     1      -5.334  62.351  39.904  1.00  0.00     0.179 C 
ATOM      3  C   UNL     1      -3.851  62.412  39.557  1.00  0.00     0.179 C 
ATOM      4  C   UNL     1      -5.967  62.708  38.577  1.00  0.00     0.202 C 
ATOM      5  C   UNL     1      -5.076  61.918  37.628  1.00  0.00     0.293 C 
ENDROOT
BRANCH   5   6
ATOM      6  O   UNL     1      -5.147  62.437  36.312  1.00  0.00    -0.253 OA
BRANCH   6   7
ATOM      7  P   UNL     1      -6.148  61.767  35.230  1.00  0.00     0.483 P 
ATOM      8  O   UNL     1      -6.889  60.558  35.723  1.00  0.00    -0.228 OA
BRANCH   7   9
ATOM      9  O   UNL     1      -5.221  61.494  33.934  1.00  0.00    -0.185 OA
BRANCH   9  10
ATOM     10  P   UNL     1      -4.201  62.461  33.137  1.00  0.00     0.478 P 
ATOM     11  O   UNL     1      -3.701  61.907  31.836  1.00  0.00    -0.228 OA
BRANCH  10  12
ATOM     12  O   UNL     1      -3.060  62.778  34.237  1.00  0.00    -0.302 OA
ATOM     13  H   UNL     1      -2.931  63.704  34.533  1.00  0.00     0.223 HD
ENDBRANCH  10  12
BRANCH  10  14
ATOM     14  O   UNL     1      -5.016  63.853  33.027  1.00  0.00    -0.302 OA
ATOM     15  H   UNL     1      -5.995  63.836  33.087  1.00  0.00     0.223 HD
ENDBRANCH  10  14
ENDBRANCH   9  10
ENDBRANCH   7   9
BRANCH   7  16
ATOM     16  O   UNL     1      -7.100  62.986  34.755  1.00  0.00    -0.302 OA
ATOM     17  H   UNL     1      -6.699  63.867  34.596  1.00  0.00     0.223 HD
ENDBRANCH   7  16
ENDBRANCH   6   7
ENDBRANCH   5   6
BRANCH   4  18
ATOM     18  O   UNL     1      -5.825  64.107  38.339  1.00  0.00    -0.385 OA
ATOM     19  H   UNL     1      -6.375  64.593  38.977  1.00  0.00     0.211 HD
ENDBRANCH   4  18
BRANCH   3  20
ATOM     20  C   UNL     1      -2.993  61.517  40.434  1.00  0.00     0.208 C 
BRANCH  20  21
ATOM     21  O   UNL     1      -3.827  60.558  41.064  1.00  0.00    -0.284 OA
BRANCH  21  22
ATOM     22  P   UNL     1      -3.613  58.995  40.703  1.00  0.00     0.469 P 
ATOM     23  O   UNL     1      -4.780  58.106  41.016  1.00  0.00    -0.228 OA
BRANCH  22  24
ATOM     24  O   UNL     1      -2.232  58.613  41.451  1.00  0.00    -0.303 OA
ATOM     25  H   UNL     1      -1.603  58.005  41.008  1.00  0.00     0.223 HD
ENDBRANCH  22  24
BRANCH  22  26
ATOM     26  O   UNL     1      -3.190  59.041  39.142  1.00  0.00    -0.303 OA
ATOM     27  H   UNL     1      -3.887  58.946  38.459  1.00  0.00     0.223 HD
ENDBRANCH  22  26
ENDBRANCH  21  22
ENDBRANCH  20  21
ENDBRANCH   3  20
BRANCH   2  28
ATOM     28  O   UNL     1      -5.669  63.243  40.944  1.00  0.00    -0.387 OA
ATOM     29  H   UNL     1      -4.886  63.346  41.510  1.00  0.00     0.211 HD
ENDBRANCH   2  28
TORSDOF 14
REMARK SMILES O=c1[nH]cc(F)c(=O)[nH]1
REMARK SMILES IDX 6 1 8 2 1 3 9 4 3 5 7 6 2 7 5 8 4 9
REMARK H PARENT 9 10 3 11
REMARK Flexibility Score: inf
ROOT
ATOM      1  F   UNL     1      -6.252  56.876  33.556  1.00  0.00    -0.199 F 
ATOM      2  O   UNL     1      -6.300  57.011  36.274  1.00  0.00    -0.266 OA
ATOM      3  O   UNL     1      -2.543  59.717  36.264  1.00  0.00    -0.248 OA
ATOM      4  N   UNL     1      -4.418  58.367  36.296  1.00  0.00    -0.272 N 
ATOM      5  N   UNL     1      -3.408  58.967  34.264  1.00  0.00    -0.311 N 
ATOM      6  C   UNL     1      -5.412  57.613  35.681  1.00  0.00     0.289 A 
ATOM      7  C   UNL     1      -3.391  59.067  35.651  1.00  0.00     0.325 A 
ATOM      8  C   UNL     1      -5.317  57.589  34.208  1.00  0.00     0.204 A 
ATOM      9  C   UNL     1      -4.347  58.248  33.577  1.00  0.00     0.132 A 
ATOM     10  H   UNL     1      -4.439  58.415  37.312  1.00  0.00     0.175 HD
ATOM     11  H   UNL     1      -2.693  59.448  33.728  1.00  0.00     0.171 HD
ENDROOT
TORSDOF 0
ENDMDL
MODEL 2
REMARK VINA RESULT:    -9.431      2.443      6.080
REMARK INTER + INTRA:         -16.735
REMARK INTER:                 -15.628
REMARK INTRA:                  -1.107
REMARK UNBOUND:                -1.514
REMARK SMILES O=P(O)(O)OC[C@H]1O[C@H](O[P@@](=O)(O)OP(=O)(O)O)[C@H](O)[C@@H]1O
REMARK SMILES IDX 8 1 21 2 7 3 19 4 9 5 10 6 11 7 12 8 14 9 15 10 16 11 17 12
REMARK SMILES IDX 18 14 13 16 20 18 6 20 5 21 2 22 1 23 3 24 4 26 22 28
REMARK H PARENT 17 13 18 15 13 17 20 19 3 25 4 27 22 29
REMARK Flexibility Score: inf
ROOT
ATOM      1  O   UNL     1      -5.020  59.890  35.931  1.00  0.00    -0.341 OA
ATOM      2  C   UNL     1      -5.648  58.009  34.639  1.00  0.00     0.179 C 
ATOM      3  C   UNL     1      -4.695  59.195  34.711  1.00  0.00     0.179 C 
ATOM      4  C   UNL     1      -5.816  57.669  36.104  1.00  0.00     0.202 C 
ATOM      5  C   UNL     1      -5.920  59.067  36.697  1.00  0.00     0.293 C 
ENDROOT
BRANCH   5   6
ATOM      6  O   UNL     1      -5.611  59.058  38.080  1.00  0.00    -0.253 OA
BRANCH   6   7
ATOM      7  P   UNL     1      -6.460  59.978  39.106  1.00  0.00     0.483 P 
ATOM      8  O   UNL     1      -7.951  59.864  38.967  1.00  0.00    -0.228 OA
BRANCH   7   9
ATOM      9  O   UNL     1      -5.886  61.473  38.880  1.00  0.00    -0.185 OA
BRANCH   9  10
ATOM     10  P   UNL     1      -6.535  62.758  38.146  1.00  0.00     0.478 P 
ATOM     11  O   UNL     1      -7.968  63.024  38.498  1.00  0.00    -0.228 OA
BRANCH  10  12
ATOM     12  O   UNL     1      -6.250  62.469  36.581  1.00  0.00    -0.302 OA
ATOM     13  H   UNL     1      -6.493  61.594  36.209  1.00  0.00     0.223 HD
ENDBRANCH  10  12
BRANCH  10  14
ATOM     14  O   UNL     1      -5.503  63.951  38.502  1.00  0.00    -0.302 OA
ATOM     15  H   UNL     1      -5.301  64.624  37.818  1.00  0.00     0.223 HD
ENDBRANCH  10  14
ENDBRANCH   9  10
ENDBRANCH   7   9
BRANCH   7  16
ATOM     16  O   UNL     1      -5.894  59.580  40.568  1.00  0.00    -0.302 OA
ATOM     17  H   UNL     1      -5.175  58.915  40.633  1.00  0.00     0.223 HD
ENDBRANCH   7  16
ENDBRANCH   6   7
ENDBRANCH   5   6
BRANCH   4  18
ATOM     18  O   UNL     1      -4.643  57.014  36.581  1.00  0.00    -0.385 OA
ATOM     19  H   UNL     1      -3.988  57.686  36.835  1.00  0.00     0.211 HD
ENDBRANCH   4  18
BRANCH   3  20
ATOM     20  C   UNL     1      -4.826  60.142  33.532  1.00  0.00     0.208 C 
BRANCH  20  21
ATOM     21  O   UNL     1      -4.601  61.468  33.983  1.00  0.00    -0.284 OA
BRANCH  21  22
ATOM     22  P   UNL     1      -3.885  62.514  32.976  1.00  0.00     0.469 P 
ATOM     23  O   UNL     1      -4.676  63.755  32.683  1.00  0.00    -0.228 OA
BRANCH  22  24
ATOM     24  O   UNL     1      -3.511  61.612  31.688  1.00  0.00    -0.303 OA
ATOM     25  H   UNL     1      -3.514  60.635  31.774  1.00  0.00     0.223 HD
ENDBRANCH  22  24
BRANCH  22  26
ATOM     26  O   UNL     1      -2.452  62.769  33.682  1.00  0.00    -0.303 OA
ATOM     27  H   UNL     1      -1.809  62.030  33.731  1.00  0.00     0.223 HD
ENDBRANCH  22  26
ENDBRANCH  21  22
ENDBRANCH  20  21
ENDBRANCH   3  20
BRANCH   2  28
ATOM     28  O   UNL     1      -5.117  56.949  33.874  1.00  0.00    -0.387 OA
ATOM     29  H   UNL     1      -5.641  56.881  33.058  1.00  0.00     0.211 HD
ENDBRANCH   2  28
TORSDOF 14
REMARK SMILES O=c1[nH]cc(F)c(=O)[nH]1
REMARK SMILES IDX 6 1 8 2 1 3 9 4 3 5 7 6 2 7 5 8 4 9
REMARK H PARENT 9 10 3 11
REMARK Flexibility Score: inf
ROOT
ATOM      1  F   UNL     1      -1.317  57.989  37.794  1.00  0.00    -0.199 F 
ATOM      2  O   UNL     1      -2.790  59.342  39.640  1.00  0.00    -0.266 OA
ATOM      3  O   UNL     1      -3.224  62.933  36.749  1.00  0.00    -0.248 OA
ATOM      4  N   UNL     1      -3.021  61.155  38.211  1.00  0.00    -0.272 N 
ATOM      5  N   UNL     1      -2.033  61.076  36.083  1.00  0.00    -0.311 N 
ATOM      6  C   UNL     1      -2.571  59.887  38.564  1.00  0.00     0.289 A 
ATOM      7  C   UNL     1      -2.790  61.806  36.993  1.00  0.00     0.325 A 
ATOM      8  C   UNL     1      -1.780  59.220  37.511  1.00  0.00     0.204 A 
ATOM      9  C   UNL     1      -1.550  59.823  36.347  1.00  0.00     0.132 A 
ATOM     10  H   UNL     1      -3.571  61.657  38.903  1.00  0.00     0.175 HD
ATOM     11  H   UNL     1      -1.825  61.484  35.177  1.00  0.00     0.171 HD
ENDROOT
TORSDOF 0
ENDMDL
MODEL 3
REMARK VINA RESULT:    -9.368      1.227      1.807
REMARK INTER + INTRA:         -16.632
REMARK INTER:                 -15.390
REMARK INTRA:                  -1.242
REMARK UNBOUND:                -1.514
REMARK SMILES O=P(O)(O)OC[C@H]1O[C@H](O[P@@](=O)(O)OP(=O)(O)O)[C@H](O)[C@@H]1O
REMARK SMILES IDX 8 1 21 2 7 3 19 4 9 5 10 6 11 7 12 8 14 9 15 10 16 11 17 12
REMARK SMILES IDX 18 14 13 16 20 18 6 20 5 21 2 22 1 23 3 24 4 26 22 28
REMARK H PARENT 17 13 18 15 13 17 20 19 3 25 4 27 22 29
REMARK Flexibility Score: inf
ROOT
ATOM      1  O   UNL     1      -3.471  61.802  38.273  1.00  0.00    -0.341 OA
ATOM      2  C   UNL     1      -4.853  62.437  40.087  1.00  0.00     0.179 C 
ATOM      3  C   UNL     1      -3.408  62.262  39.637  1.00  0.00     0.179 C 
ATOM      4  C   UNL     1      -5.519  62.863  38.798  1.00  0.00     0.202 C 
ATOM      5  C   UNL     1      -4.830  61.929  37.812  1.00  0.00     0.293 C 
ENDROOT
BRANCH   5   6
ATOM      6  O   UNL     1      -4.917  62.429  36.490  1.00  0.00    -0.253 OA
BRANCH   6   7
ATOM      7  P   UNL     1      -4.979  61.404  35.239  1.00  0.00     0.483 P 
ATOM      8  O   UNL     1      -3.994  60.272  35.302  1.00  0.00    -0.228 OA
BRANCH   7   9
ATOM      9  O   UNL     1      -4.823  62.346  33.934  1.00  0.00    -0.185 OA
BRANCH   9  10
ATOM     10  P   UNL     1      -3.508  62.853  33.144  1.00  0.00     0.478 P 
ATOM     11  O   UNL     1      -3.488  64.322  32.840  1.00  0.00    -0.228 OA
BRANCH  10  12
ATOM     12  O   UNL     1      -3.456  61.880  31.855  1.00  0.00    -0.302 OA
ATOM     13  H   UNL     1      -2.583  61.593  31.512  1.00  0.00     0.223 HD
ENDBRANCH  10  12
BRANCH  10  14
ATOM     14  O   UNL     1      -2.291  62.322  34.066  1.00  0.00    -0.302 OA
ATOM     15  H   UNL     1      -1.462  62.025  33.634  1.00  0.00     0.223 HD
ENDBRANCH  10  14
ENDBRANCH   9  10
ENDBRANCH   7   9
BRANCH   7  16
ATOM     16  O   UNL     1      -6.527  60.939  35.177  1.00  0.00    -0.302 OA
ATOM     17  H   UNL     1      -6.743  59.990  35.304  1.00  0.00     0.223 HD
ENDBRANCH   7  16
ENDBRANCH   6   7
ENDBRANCH   5   6
BRANCH   4  18
ATOM     18  O   UNL     1      -5.184  64.220  38.511  1.00  0.00    -0.385 OA
ATOM     19  H   UNL     1      -5.897  64.796  38.833  1.00  0.00     0.211 HD
ENDBRANCH   4  18
BRANCH   3  20
ATOM     20  C   UNL     1      -2.634  61.263  40.478  1.00  0.00     0.208 C 
BRANCH  20  21
ATOM     21  O   UNL     1      -3.554  60.397  41.121  1.00  0.00    -0.284 OA
BRANCH  21  22
ATOM     22  P   UNL     1      -3.544  58.828  40.723  1.00  0.00     0.469 P 
ATOM     23  O   UNL     1      -4.790  58.074  41.084  1.00  0.00    -0.228 OA
BRANCH  22  24
ATOM     24  O   UNL     1      -2.181  58.271  41.390  1.00  0.00    -0.303 OA
ATOM     25  H   UNL     1      -1.432  58.025  40.805  1.00  0.00     0.223 HD
ENDBRANCH  22  24
BRANCH  22  26
ATOM     26  O   UNL     1      -3.200  58.860  39.143  1.00  0.00    -0.303 OA
ATOM     27  H   UNL     1      -3.175  58.015  38.646  1.00  0.00     0.223 HD
ENDBRANCH  22  26
ENDBRANCH  21  22
ENDBRANCH  20  21
ENDBRANCH   3  20
BRANCH   2  28
ATOM     28  O   UNL     1      -4.972  63.388  41.122  1.00  0.00    -0.387 OA
ATOM     29  H   UNL     1      -4.920  64.271  40.720  1.00  0.00     0.211 HD
ENDBRANCH   2  28
TORSDOF 14
REMARK SMILES O=c1[nH]cc(F)c(=O)[nH]1
REMARK SMILES IDX 6 1 8 2 1 3 9 4 3 5 7 6 2 7 5 8 4 9
REMARK H PARENT 9 10 3 11
REMARK Flexibility Score: inf
ROOT
ATOM      1  F   UNL     1      -4.177  56.410  33.062  1.00  0.00    -0.199 F 
ATOM      2  O   UNL     1      -6.649  57.502  33.388  1.00  0.00    -0.266 OA
ATOM      3  O   UNL     1      -5.809  58.205  37.888  1.00  0.00    -0.248 OA
ATOM      4  N   UNL     1      -6.253  57.864  35.645  1.00  0.00    -0.272 N 
ATOM      5  N   UNL     1      -4.190  57.230  36.568  1.00  0.00    -0.311 N 
ATOM      6  C   UNL     1      -5.915  57.428  34.368  1.00  0.00     0.289 A 
ATOM      7  C   UNL     1      -5.442  57.796  36.784  1.00  0.00     0.325 A 
ATOM      8  C   UNL     1      -4.561  56.849  34.274  1.00  0.00     0.204 A 
ATOM      9  C   UNL     1      -3.775  56.775  35.346  1.00  0.00     0.132 A 
ATOM     10  H   UNL     1      -7.177  58.271  35.764  1.00  0.00     0.175 HD
ATOM     11  H   UNL     1      -3.546  57.147  37.349  1.00  0.00     0.171 HD
ENDROOT
TORSDOF 0
ENDMDL
MODEL 4
REMARK VINA RESULT:    -9.362      2.738      6.291
REMARK INTER + INTRA:         -16.622
REMARK INTER:                 -14.763
REMARK INTRA:                  -1.859
REMARK UNBOUND:                -1.514
REMARK SMILES O=P(O)(O)OC[C@H]1O[C@H](O[P@@](=O)(O)OP(=O)(O)O)[C@H](O)[C@@H]1O
REMARK SMILES IDX 8 1 21 2 7 3 19 4 9 5 10 6 11 7 12 8 14 9 15 10 16 11 17 12
REMARK SMILES IDX 18 14 13 16 20 18 6 20 5 21 2 22 1 23 3 24 4 26 22 28
REMARK H PARENT 17 13 18 15 13 17 20 19 3 25 4 27 22 29
REMARK Flexibility Score: inf
ROOT
ATOM      1  O   UNL     1      -5.194  59.768  35.621  1.00  0.00    -0.341 OA
ATOM      2  C   UNL     1      -5.442  57.831  34.283  1.00  0.00     0.179 C 
ATOM      3  C   UNL     1      -4.691  59.149  34.421  1.00  0.00     0.179 C 
ATOM      4  C   UNL     1      -5.645  57.448  35.732  1.00  0.00     0.202 C 
ATOM      5  C   UNL     1      -6.001  58.804  36.325  1.00  0.00     0.293 C 
ENDROOT
BRANCH   5   6
ATOM      6  O   UNL     1      -5.781  58.823  37.725  1.00  0.00    -0.253 OA
BRANCH   6   7
ATOM      7  P   UNL     1      -6.273  60.089  38.606  1.00  0.00     0.483 P 
ATOM      8  O   UNL     1      -7.590  60.674  38.185  1.00  0.00    -0.228 OA
BRANCH   7   9
ATOM      9  O   UNL     1      -5.036  61.129  38.546  1.00  0.00    -0.185 OA
BRANCH   9  10
ATOM     10  P   UNL     1      -4.769  62.405  37.593  1.00  0.00     0.478 P 
ATOM     11  O   UNL     1      -4.547  63.697  38.322  1.00  0.00    -0.228 OA
BRANCH  10  12
ATOM     12  O   UNL     1      -6.038  62.387  36.592  1.00  0.00    -0.302 OA
ATOM     13  H   UNL     1      -6.942  62.346  36.972  1.00  0.00     0.223 HD
ENDBRANCH  10  12
BRANCH  10  14
ATOM     14  O   UNL     1      -3.544  61.920  36.656  1.00  0.00    -0.302 OA
ATOM     15  H   UNL     1      -3.078  61.086  36.877  1.00  0.00     0.223 HD
ENDBRANCH  10  14
ENDBRANCH   9  10
ENDBRANCH   7   9
BRANCH   7  16
ATOM     16  O   UNL     1      -6.236  59.555  40.132  1.00  0.00    -0.302 OA
ATOM     17  H   UNL     1      -5.796  58.701  40.326  1.00  0.00     0.223 HD
ENDBRANCH   7  16
ENDBRANCH   6   7
ENDBRANCH   5   6
BRANCH   4  18
ATOM     18  O   UNL     1      -4.416  56.976  36.280  1.00  0.00    -0.385 OA
ATOM     19  H   UNL     1      -3.862  56.630  35.560  1.00  0.00     0.211 HD
ENDBRANCH   4  18
BRANCH   3  20
ATOM     20  C   UNL     1      -4.895  60.082  33.241  1.00  0.00     0.208 C 
BRANCH  20  21
ATOM     21  O   UNL     1      -4.870  61.421  33.706  1.00  0.00    -0.284 OA
BRANCH  21  22
ATOM     22  P   UNL     1      -3.917  62.485  32.946  1.00  0.00     0.469 P 
ATOM     23  O   UNL     1      -4.542  63.825  32.687  1.00  0.00    -0.228 OA
BRANCH  22  24
ATOM     24  O   UNL     1      -3.423  61.687  31.630  1.00  0.00    -0.303 OA
ATOM     25  H   UNL     1      -2.903  60.862  31.742  1.00  0.00     0.223 HD
ENDBRANCH  22  24
BRANCH  22  26
ATOM     26  O   UNL     1      -2.597  62.517  33.879  1.00  0.00    -0.303 OA
ATOM     27  H   UNL     1      -2.678  62.832  34.805  1.00  0.00     0.223 HD
ENDBRANCH  22  26
ENDBRANCH  21  22
ENDBRANCH  20  21
ENDBRANCH   3  20
BRANCH   2  28
ATOM     28  O   UNL     1      -4.706  56.878  33.548  1.00  0.00    -0.387 OA
ATOM     29  H   UNL     1      -3.888  56.692  34.040  1.00  0.00     0.211 HD
ENDBRANCH   2  28
TORSDOF 14
REMARK SMILES O=c1[nH]cc(F)c(=O)[nH]1
REMARK SMILES IDX 6 1 8 2 1 3 9 4 3 5 7 6 2 7 5 8 4 9
REMARK H PARENT 9 10 3 11
REMARK Flexibility Score: inf
ROOT
ATOM      1  F   UNL     1       0.206  58.521  37.401  1.00  0.00    -0.199 F 
ATOM      2  O   UNL     1      -2.315  59.312  36.744  1.00  0.00    -0.266 OA
ATOM      3  O   UNL     1      -3.735  58.596  41.093  1.00  0.00    -0.248 OA
ATOM      4  N   UNL     1      -3.052  58.960  38.916  1.00  0.00    -0.272 N 
ATOM      5  N   UNL     1      -1.538  58.184  40.533  1.00  0.00    -0.311 N 
ATOM      6  C   UNL     1      -2.099  58.972  37.903  1.00  0.00     0.289 A 
ATOM      7  C   UNL     1      -2.840  58.580  40.246  1.00  0.00     0.325 A 
ATOM      8  C   UNL     1      -0.759  58.531  38.337  1.00  0.00     0.204 A 
ATOM      9  C   UNL     1      -0.539  58.165  39.599  1.00  0.00     0.132 A 
ATOM     10  H   UNL     1      -3.992  59.256  38.667  1.00  0.00     0.175 HD
ATOM     11  H   UNL     1      -1.309  57.894  41.479  1.00  0.00     0.171 HD
ENDROOT
TORSDOF 0
ENDMDL
MODEL 5
REMARK VINA RESULT:    -9.351      2.038      3.459
REMARK INTER + INTRA:         -16.606
REMARK INTER:                 -15.205
REMARK INTRA:                  -1.401
REMARK UNBOUND:                -1.514
REMARK SMILES O=P(O)(O)OC[C@H]1O[C@H](O[P@@](=O)(O)OP(=O)(O)O)[C@H](O)[C@@H]1O
REMARK SMILES IDX 8 1 21 2 7 3 19 4 9 5 10 6 11 7 12 8 14 9 15 10 16 11 17 12
REMARK SMILES IDX 18 14 13 16 20 18 6 20 5 21 2 22 1 23 3 24 4 26 22 28
REMARK H PARENT 17 13 18 15 13 17 20 19 3 25 4 27 22 29
REMARK Flexibility Score: inf
ROOT
ATOM      1  O   UNL     1      -3.689  60.281  38.231  1.00  0.00    -0.341 OA
ATOM      2  C   UNL     1      -1.813  59.092  39.049  1.00  0.00     0.179 C 
ATOM      3  C   UNL     1      -3.277  59.423  39.313  1.00  0.00     0.179 C 
ATOM      4  C   UNL     1      -1.779  59.072  37.536  1.00  0.00     0.202 C 
ATOM      5  C   UNL     1      -2.656  60.278  37.228  1.00  0.00     0.293 C 
ENDROOT
BRANCH   5   6
ATOM      6  O   UNL     1      -3.171  60.210  35.910  1.00  0.00    -0.253 OA
BRANCH   6   7
ATOM      7  P   UNL     1      -4.159  61.371  35.365  1.00  0.00     0.483 P 
ATOM      8  O   UNL     1      -5.482  60.882  34.850  1.00  0.00    -0.228 OA
BRANCH   7   9
ATOM      9  O   UNL     1      -3.278  62.172  34.272  1.00  0.00    -0.185 OA
BRANCH   9  10
ATOM     10  P   UNL     1      -3.705  62.905  32.897  1.00  0.00     0.478 P 
ATOM     11  O   UNL     1      -3.689  62.021  31.685  1.00  0.00    -0.228 OA
BRANCH  10  12
ATOM     12  O   UNL     1      -2.711  64.178  32.835  1.00  0.00    -0.302 OA
ATOM     13  H   UNL     1      -2.620  64.747  33.629  1.00  0.00     0.223 HD
ENDBRANCH  10  12
BRANCH  10  14
ATOM     14  O   UNL     1      -5.138  63.562  33.254  1.00  0.00    -0.302 OA
ATOM     15  H   UNL     1      -5.181  64.265  33.936  1.00  0.00     0.223 HD
ENDBRANCH  10  14
ENDBRANCH   9  10
ENDBRANCH   7   9
BRANCH   7  16
ATOM     16  O   UNL     1      -4.266  62.417  36.594  1.00  0.00    -0.302 OA
ATOM     17  H   UNL     1      -3.708  62.275  37.389  1.00  0.00     0.223 HD
ENDBRANCH   7  16
ENDBRANCH   6   7
ENDBRANCH   5   6
BRANCH   4  18
ATOM     18  O   UNL     1      -2.393  57.877  37.058  1.00  0.00    -0.385 OA
ATOM     19  H   UNL     1      -2.209  57.156  37.683  1.00  0.00     0.211 HD
ENDBRANCH   4  18
BRANCH   3  20
ATOM     20  C   UNL     1      -3.502  60.128  40.639  1.00  0.00     0.208 C 
BRANCH  20  21
ATOM     21  O   UNL     1      -3.257  61.514  40.468  1.00  0.00    -0.284 OA
BRANCH  21  22
ATOM     22  P   UNL     1      -4.466  62.552  40.750  1.00  0.00     0.469 P 
ATOM     23  O   UNL     1      -5.449  62.111  41.795  1.00  0.00    -0.228 OA
BRANCH  22  24
ATOM     24  O   UNL     1      -5.091  62.823  39.284  1.00  0.00    -0.303 OA
ATOM     25  H   UNL     1      -4.896  62.190  38.560  1.00  0.00     0.223 HD
ENDBRANCH  22  24
BRANCH  22  26
ATOM     26  O   UNL     1      -3.688  63.930  41.084  1.00  0.00    -0.303 OA
ATOM     27  H   UNL     1      -4.184  64.775  41.053  1.00  0.00     0.223 HD
ENDBRANCH  22  26
ENDBRANCH  21  22
ENDBRANCH  20  21
ENDBRANCH   3  20
BRANCH   2  28
ATOM     28  O   UNL     1      -1.435  57.865  39.635  1.00  0.00    -0.387 OA
ATOM     29  H   UNL     1      -1.424  57.193  38.933  1.00  0.00     0.211 HD
ENDBRANCH   2  28
TORSDOF 14
REMARK SMILES O=c1[nH]cc(F)c(=O)[nH]1
REMARK SMILES IDX 6 1 8 2 1 3 9 4 3 5 7 6 2 7 5 8 4 9
REMARK H PARENT 9 10 3 11
REMARK Flexibility Score: inf
ROOT
ATOM      1  F   UNL     1      -7.909  57.233  35.990  1.00  0.00    -0.199 F 
ATOM      2  O   UNL     1      -5.481  57.788  37.088  1.00  0.00    -0.266 OA
ATOM      3  O   UNL     1      -3.399  56.981  33.031  1.00  0.00    -0.248 OA
ATOM      4  N   UNL     1      -4.413  57.388  35.067  1.00  0.00    -0.272 N 
ATOM      5  N   UNL     1      -5.687  56.764  33.197  1.00  0.00    -0.311 N 
ATOM      6  C   UNL     1      -5.522  57.478  35.902  1.00  0.00     0.289 A 
ATOM      7  C   UNL     1      -4.424  57.039  33.711  1.00  0.00     0.325 A 
ATOM      8  C   UNL     1      -6.800  57.162  35.234  1.00  0.00     0.204 A 
ATOM      9  C   UNL     1      -6.830  56.828  33.945  1.00  0.00     0.132 A 
ATOM     10  H   UNL     1      -3.508  57.596  35.480  1.00  0.00     0.175 HD
ATOM     11  H   UNL     1      -5.774  56.503  32.219  1.00  0.00     0.171 HD
ENDROOT
TORSDOF 0
ENDMDL
MODEL 6
REMARK VINA RESULT:    -9.293      2.951      7.568
REMARK INTER + INTRA:         -16.512
REMARK INTER:                 -15.262
REMARK INTRA:                  -1.250
REMARK UNBOUND:                -1.514
REMARK SMILES O=P(O)(O)OC[C@H]1O[C@H](O[P@@](=O)(O)OP(=O)(O)O)[C@H](O)[C@@H]1O
REMARK SMILES IDX 8 1 21 2 7 3 19 4 9 5 10 6 11 7 12 8 14 9 15 10 16 11 17 12
REMARK SMILES IDX 18 14 13 16 20 18 6 20 5 21 2 22 1 23 3 24 4 26 22 28
REMARK H PARENT 17 13 18 15 13 17 20 19 3 25 4 27 22 29
REMARK Flexibility Score: inf
ROOT
ATOM      1  O   UNL     1      -4.241  59.716  35.595  1.00  0.00    -0.341 OA
ATOM      2  C   UNL     1      -4.689  57.717  34.409  1.00  0.00     0.179 C 
ATOM      3  C   UNL     1      -3.985  59.067  34.335  1.00  0.00     0.179 C 
ATOM      4  C   UNL     1      -4.552  57.389  35.879  1.00  0.00     0.202 C 
ATOM      5  C   UNL     1      -4.830  58.755  36.491  1.00  0.00     0.293 C 
ENDROOT
BRANCH   5   6
ATOM      6  O   UNL     1      -4.310  58.840  37.807  1.00  0.00    -0.253 OA
BRANCH   6   7
ATOM      7  P   UNL     1      -3.075  59.836  38.126  1.00  0.00     0.483 P 
ATOM      8  O   UNL     1      -1.747  59.383  37.592  1.00  0.00    -0.228 OA
BRANCH   7   9
ATOM      9  O   UNL     1      -3.114  60.027  39.731  1.00  0.00    -0.185 OA
BRANCH   9  10
ATOM     10  P   UNL     1      -3.006  58.950  40.931  1.00  0.00     0.478 P 
ATOM     11  O   UNL     1      -3.022  59.543  42.308  1.00  0.00    -0.228 OA
BRANCH  10  12
ATOM     12  O   UNL     1      -1.675  58.114  40.554  1.00  0.00    -0.302 OA
ATOM     13  H   UNL     1      -1.669  57.577  39.733  1.00  0.00     0.223 HD
ENDBRANCH  10  12
BRANCH  10  14
ATOM     14  O   UNL     1      -4.205  57.914  40.610  1.00  0.00    -0.302 OA
ATOM     15  H   UNL     1      -4.665  57.973  39.745  1.00  0.00     0.223 HD
ENDBRANCH  10  14
ENDBRANCH   9  10
ENDBRANCH   7   9
BRANCH   7  16
ATOM     16  O   UNL     1      -3.564  61.274  37.569  1.00  0.00    -0.302 OA
ATOM     17  H   UNL     1      -3.056  61.700  36.846  1.00  0.00     0.223 HD
ENDBRANCH   7  16
ENDBRANCH   6   7
ENDBRANCH   5   6
BRANCH   4  18
ATOM     18  O   UNL     1      -3.213  56.985  36.158  1.00  0.00    -0.385 OA
ATOM     19  H   UNL     1      -2.628  57.331  35.463  1.00  0.00     0.211 HD
ENDBRANCH   4  18
BRANCH   3  20
ATOM     20  C   UNL     1      -4.484  59.942  33.198  1.00  0.00     0.208 C 
BRANCH  20  21
ATOM     21  O   UNL     1      -4.713  61.250  33.695  1.00  0.00    -0.284 OA
BRANCH  21  22
ATOM     22  P   UNL     1      -3.912  62.483  33.018  1.00  0.00     0.469 P 
ATOM     23  O   UNL     1      -4.684  63.766  32.924  1.00  0.00    -0.228 OA
BRANCH  22  24
ATOM     24  O   UNL     1      -3.399  61.880  31.608  1.00  0.00    -0.303 OA
ATOM     25  H   UNL     1      -4.061  61.553  30.962  1.00  0.00     0.223 HD
ENDBRANCH  22  24
BRANCH  22  26
ATOM     26  O   UNL     1      -2.560  62.563  33.902  1.00  0.00    -0.303 OA
ATOM     27  H   UNL     1      -2.538  63.157  34.682  1.00  0.00     0.223 HD
ENDBRANCH  22  26
ENDBRANCH  21  22
ENDBRANCH  20  21
ENDBRANCH   3  20
BRANCH   2  28
ATOM     28  O   UNL     1      -4.089  56.762  33.562  1.00  0.00    -0.387 OA
ATOM     29  H   UNL     1      -4.153  57.093  32.650  1.00  0.00     0.211 HD
ENDBRANCH   2  28
TORSDOF 14
REMARK SMILES O=c1[nH]cc(F)c(=O)[nH]1
REMARK SMILES IDX 6 1 8 2 1 3 9 4 3 5 7 6 2 7 5 8 4 9
REMARK H PARENT 9 10 3 11
REMARK Flexibility Score: inf
ROOT
ATOM      1  F   UNL     1      -4.673  62.148  42.068  1.00  0.00    -0.199 F 
ATOM      2  O   UNL     1      -3.415  63.268  39.929  1.00  0.00    -0.266 OA
ATOM      3  O   UNL     1      -7.486  64.022  37.855  1.00  0.00    -0.248 OA
ATOM      4  N   UNL     1      -5.441  63.655  38.868  1.00  0.00    -0.272 N 
ATOM      5  N   UNL     1      -7.436  63.014  39.927  1.00  0.00    -0.311 N 
ATOM      6  C   UNL     1      -4.639  63.200  39.909  1.00  0.00     0.289 A 
ATOM      7  C   UNL     1      -6.839  63.595  38.813  1.00  0.00     0.325 A 
ATOM      8  C   UNL     1      -5.394  62.607  41.030  1.00  0.00     0.204 A 
ATOM      9  C   UNL     1      -6.724  62.539  40.995  1.00  0.00     0.132 A 
ATOM     10  H   UNL     1      -4.968  64.074  38.072  1.00  0.00     0.175 HD
ATOM     11  H   UNL     1      -8.447  62.935  39.959  1.00  0.00     0.171 HD
ENDROOT
TORSDOF 0
ENDMDL
MODEL 7
REMARK VINA RESULT:    -9.165      2.789      5.076
REMARK INTER + INTRA:         -16.305
REMARK INTER:                 -14.818
REMARK INTRA:                  -1.488
REMARK UNBOUND:                -1.514
REMARK SMILES O=P(O)(O)OC[C@H]1O[C@H](O[P@@](=O)(O)OP(=O)(O)O)[C@H](O)[C@@H]1O
REMARK SMILES IDX 8 1 21 2 7 3 19 4 9 5 10 6 11 7 12 8 14 9 15 10 16 11 17 12
REMARK SMILES IDX 18 14 13 16 20 18 6 20 5 21 2 22 1 23 3 24 4 26 22 28
REMARK H PARENT 17 13 18 15 13 17 20 19 3 25 4 27 22 29
REMARK Flexibility Score: inf
ROOT
ATOM      1  O   UNL     1      -4.798  60.157  37.089  1.00  0.00    -0.341 OA
ATOM      2  C   UNL     1      -4.848  57.802  37.318  1.00  0.00     0.179 C 
ATOM      3  C   UNL     1      -5.418  59.107  37.857  1.00  0.00     0.179 C 
ATOM      4  C   UNL     1      -4.645  58.143  35.858  1.00  0.00     0.202 C 
ATOM      5  C   UNL     1      -4.097  59.558  35.982  1.00  0.00     0.293 C 
ENDROOT
BRANCH   5   6
ATOM      6  O   UNL     1      -4.264  60.278  34.773  1.00  0.00    -0.253 OA
BRANCH   6   7
ATOM      7  P   UNL     1      -5.262  61.550  34.719  1.00  0.00     0.483 P 
ATOM      8  O   UNL     1      -6.724  61.205  34.716  1.00  0.00    -0.228 OA
BRANCH   7   9
ATOM      9  O   UNL     1      -4.778  62.392  33.426  1.00  0.00    -0.185 OA
BRANCH   9  10
ATOM     10  P   UNL     1      -3.312  62.909  32.986  1.00  0.00     0.478 P 
ATOM     11  O   UNL     1      -3.189  64.397  32.847  1.00  0.00    -0.228 OA
BRANCH  10  12
ATOM     12  O   UNL     1      -3.012  62.063  31.642  1.00  0.00    -0.302 OA
ATOM     13  H   UNL     1      -3.749  61.888  31.018  1.00  0.00     0.223 HD
ENDBRANCH  10  12
BRANCH  10  14
ATOM     14  O   UNL     1      -2.334  62.234  34.082  1.00  0.00    -0.302 OA
ATOM     15  H   UNL     1      -2.701  61.984  34.956  1.00  0.00     0.223 HD
ENDBRANCH  10  14
ENDBRANCH   9  10
ENDBRANCH   7   9
BRANCH   7  16
ATOM     16  O   UNL     1      -4.799  62.478  35.960  1.00  0.00    -0.302 OA
ATOM     17  H   UNL     1      -3.840  62.615  36.119  1.00  0.00     0.223 HD
ENDBRANCH   7  16
ENDBRANCH   6   7
ENDBRANCH   5   6
BRANCH   4  18
ATOM     18  O   UNL     1      -5.905  58.157  35.189  1.00  0.00    -0.385 OA
ATOM     19  H   UNL     1      -5.950  58.942  34.618  1.00  0.00     0.211 HD
ENDBRANCH   4  18
BRANCH   3  20
ATOM     20  C   UNL     1      -5.138  59.320  39.334  1.00  0.00     0.208 C 
BRANCH  20  21
ATOM     21  O   UNL     1      -4.126  58.415  39.742  1.00  0.00    -0.284 OA
BRANCH  21  22
ATOM     22  P   UNL     1      -2.834  59.002  40.521  1.00  0.00     0.469 P 
ATOM     23  O   UNL     1      -3.042  59.266  41.984  1.00  0.00    -0.228 OA
BRANCH  22  24
ATOM     24  O   UNL     1      -2.405  60.287  39.640  1.00  0.00    -0.303 OA
ATOM     25  H   UNL     1      -1.802  60.953  40.034  1.00  0.00     0.223 HD
ENDBRANCH  22  24
BRANCH  22  26
ATOM     26  O   UNL     1      -1.684  57.916  40.181  1.00  0.00    -0.303 OA
ATOM     27  H   UNL     1      -1.829  56.978  40.429  1.00  0.00     0.223 HD
ENDBRANCH  22  26
ENDBRANCH  21  22
ENDBRANCH  20  21
ENDBRANCH   3  20
BRANCH   2  28
ATOM     28  O   UNL     1      -5.725  56.716  37.524  1.00  0.00    -0.387 OA
ATOM     29  H   UNL     1      -5.631  56.112  36.768  1.00  0.00     0.211 HD
ENDBRANCH   2  28
TORSDOF 14
REMARK SMILES O=c1[nH]cc(F)c(=O)[nH]1
REMARK SMILES IDX 6 1 8 2 1 3 9 4 3 5 7 6 2 7 5 8 4 9
REMARK H PARENT 9 10 3 11
REMARK Flexibility Score: inf
ROOT
ATOM      1  F   UNL     1      -4.031  62.160  41.550  1.00  0.00    -0.199 F 
ATOM      2  O   UNL     1      -3.234  63.046  39.103  1.00  0.00    -0.266 OA
ATOM      3  O   UNL     1      -7.600  64.135  38.010  1.00  0.00    -0.248 OA
ATOM      4  N   UNL     1      -5.413  63.599  38.531  1.00  0.00    -0.272 N 
ATOM      5  N   UNL     1      -7.140  63.219  40.075  1.00  0.00    -0.311 N 
ATOM      6  C   UNL     1      -4.427  63.107  39.379  1.00  0.00     0.289 A 
ATOM      7  C   UNL     1      -6.782  63.684  38.814  1.00  0.00     0.325 A 
ATOM      8  C   UNL     1      -4.938  62.646  40.685  1.00  0.00     0.204 A 
ATOM      9  C   UNL     1      -6.236  62.719  40.972  1.00  0.00     0.132 A 
ATOM     10  H   UNL     1      -5.112  63.929  37.617  1.00  0.00     0.175 HD
ATOM     11  H   UNL     1      -8.116  63.249  40.351  1.00  0.00     0.171 HD
ENDROOT
TORSDOF 0
ENDMDL
MODEL 8
REMARK VINA RESULT:    -9.119      2.090      3.482
REMARK INTER + INTRA:         -16.230
REMARK INTER:                 -15.430
REMARK INTRA:                  -0.800
REMARK UNBOUND:                -1.514
REMARK SMILES O=P(O)(O)OC[C@H]1O[C@H](O[P@@](=O)(O)OP(=O)(O)O)[C@H](O)[C@@H]1O
REMARK SMILES IDX 8 1 21 2 7 3 19 4 9 5 10 6 11 7 12 8 14 9 15 10 16 11 17 12
REMARK SMILES IDX 18 14 13 16 20 18 6 20 5 21 2 22 1 23 3 24 4 26 22 28
REMARK H PARENT 17 13 18 15 13 17 20 19 3 25 4 27 22 29
REMARK Flexibility Score: inf
ROOT
ATOM      1  O   UNL     1      -3.264  60.213  38.530  1.00  0.00    -0.341 OA
ATOM      2  C   UNL     1      -1.361  58.818  38.711  1.00  0.00     0.179 C 
ATOM      3  C   UNL     1      -2.661  59.228  39.391  1.00  0.00     0.179 C 
ATOM      4  C   UNL     1      -1.735  58.942  37.250  1.00  0.00     0.202 C 
ATOM      5  C   UNL     1      -2.543  60.232  37.284  1.00  0.00     0.293 C 
ENDROOT
BRANCH   5   6
ATOM      6  O   UNL     1      -3.396  60.328  36.157  1.00  0.00    -0.253 OA
BRANCH   6   7
ATOM      7  P   UNL     1      -3.954  61.773  35.685  1.00  0.00     0.483 P 
ATOM      8  O   UNL     1      -5.211  62.218  36.376  1.00  0.00    -0.228 OA
BRANCH   7   9
ATOM      9  O   UNL     1      -4.089  61.651  34.079  1.00  0.00    -0.185 OA
BRANCH   9  10
ATOM     10  P   UNL     1      -3.654  62.665  32.898  1.00  0.00     0.478 P 
ATOM     11  O   UNL     1      -4.558  63.849  32.726  1.00  0.00    -0.228 OA
BRANCH  10  12
ATOM     12  O   UNL     1      -3.532  61.696  31.610  1.00  0.00    -0.302 OA
ATOM     13  H   UNL     1      -2.851  61.893  30.932  1.00  0.00     0.223 HD
ENDBRANCH  10  12
BRANCH  10  14
ATOM     14  O   UNL     1      -2.117  63.014  33.254  1.00  0.00    -0.302 OA
ATOM     15  H   UNL     1      -1.782  63.919  33.075  1.00  0.00     0.223 HD
ENDBRANCH  10  14
ENDBRANCH   9  10
ENDBRANCH   7   9
BRANCH   7  16
ATOM     16  O   UNL     1      -2.697  62.773  35.878  1.00  0.00    -0.302 OA
ATOM     17  H   UNL     1      -1.794  62.441  35.686  1.00  0.00     0.223 HD
ENDBRANCH   7  16
ENDBRANCH   6   7
ENDBRANCH   5   6
BRANCH   4  18
ATOM     18  O   UNL     1      -2.567  57.846  36.874  1.00  0.00    -0.385 OA
ATOM     19  H   UNL     1      -2.391  57.098  37.468  1.00  0.00     0.211 HD
ENDBRANCH   4  18
BRANCH   3  20
ATOM     20  C   UNL     1      -2.454  59.816  40.775  1.00  0.00     0.208 C 
BRANCH  20  21
ATOM     21  O   UNL     1      -3.210  59.064  41.710  1.00  0.00    -0.284 OA
BRANCH  21  22
ATOM     22  P   UNL     1      -4.802  59.339  41.814  1.00  0.00     0.469 P 
ATOM     23  O   UNL     1      -5.262  60.635  41.214  1.00  0.00    -0.228 OA
BRANCH  22  24
ATOM     24  O   UNL     1      -5.121  59.154  43.388  1.00  0.00    -0.303 OA
ATOM     25  H   UNL     1      -4.434  58.764  43.970  1.00  0.00     0.223 HD
ENDBRANCH  22  24
BRANCH  22  26
ATOM     26  O   UNL     1      -5.442  58.012  41.146  1.00  0.00    -0.303 OA
ATOM     27  H   UNL     1      -6.224  58.105  40.561  1.00  0.00     0.223 HD
ENDBRANCH  22  26
ENDBRANCH  21  22
ENDBRANCH  20  21
ENDBRANCH   3  20
BRANCH   2  28
ATOM     28  O   UNL     1      -0.960  57.516  39.079  1.00  0.00    -0.387 OA
ATOM     29  H   UNL     1      -0.204  57.270  38.519  1.00  0.00     0.211 HD
ENDBRANCH   2  28
TORSDOF 14
REMARK SMILES O=c1[nH]cc(F)c(=O)[nH]1
REMARK SMILES IDX 6 1 8 2 1 3 9 4 3 5 7 6 2 7 5 8 4 9
REMARK H PARENT 9 10 3 11
REMARK Flexibility Score: inf
ROOT
ATOM      1  F   UNL     1      -6.165  58.767  32.925  1.00  0.00    -0.199 F 
ATOM      2  O   UNL     1      -4.544  57.212  34.462  1.00  0.00    -0.266 OA
ATOM      3  O   UNL     1      -6.437  58.947  38.316  1.00  0.00    -0.248 OA
ATOM      4  N   UNL     1      -5.475  58.067  36.408  1.00  0.00    -0.272 N 
ATOM      5  N   UNL     1      -7.176  59.678  36.259  1.00  0.00    -0.311 N 
ATOM      6  C   UNL     1      -5.338  57.956  35.028  1.00  0.00     0.289 A 
ATOM      7  C   UNL     1      -6.370  58.903  37.086  1.00  0.00     0.325 A 
ATOM      8  C   UNL     1      -6.250  58.830  34.265  1.00  0.00     0.204 A 
ATOM      9  C   UNL     1      -7.108  59.633  34.893  1.00  0.00     0.132 A 
ATOM     10  H   UNL     1      -4.869  57.484  36.979  1.00  0.00     0.175 HD
ATOM     11  H   UNL     1      -7.850  60.310  36.680  1.00  0.00     0.171 HD
ENDROOT
TORSDOF 0
ENDMDL
MODEL 9
REMARK VINA RESULT:    -9.107      2.719      6.390
REMARK INTER + INTRA:         -16.212
REMARK INTER:                 -14.858
REMARK INTRA:                  -1.354
REMARK UNBOUND:                -1.514
REMARK SMILES O=P(O)(O)OC[C@H]1O[C@H](O[P@@](=O)(O)OP(=O)(O)O)[C@H](O)[C@@H]1O
REMARK SMILES IDX 8 1 21 2 7 3 19 4 9 5 10 6 11 7 12 8 14 9 15 10 16 11 17 12
REMARK SMILES IDX 18 14 13 16 20 18 6 20 5 21 2 22 1 23 3 24 4 26 22 28
REMARK H PARENT 17 13 18 15 13 17 20 19 3 25 4 27 22 29
REMARK Flexibility Score: inf
ROOT
ATOM      1  O   UNL     1      -5.074  60.951  36.383  1.00  0.00    -0.341 OA
ATOM      2  C   UNL     1      -7.006  61.998  35.505  1.00  0.00     0.179 C 
ATOM      3  C   UNL     1      -6.114  60.767  35.404  1.00  0.00     0.179 C 
ATOM      4  C   UNL     1      -6.909  62.318  36.980  1.00  0.00     0.202 C 
ATOM      5  C   UNL     1      -5.425  62.072  37.216  1.00  0.00     0.293 C 
ENDROOT
BRANCH   5   6
ATOM      6  O   UNL     1      -5.158  61.842  38.588  1.00  0.00    -0.253 OA
BRANCH   6   7
ATOM      7  P   UNL     1      -4.140  62.812  39.389  1.00  0.00     0.483 P 
ATOM      8  O   UNL     1      -2.687  62.464  39.238  1.00  0.00    -0.228 OA
BRANCH   7   9
ATOM      9  O   UNL     1      -4.672  62.786  40.916  1.00  0.00    -0.185 OA
BRANCH   9  10
ATOM     10  P   UNL     1      -6.162  62.620  41.517  1.00  0.00     0.478 P 
ATOM     11  O   UNL     1      -6.499  61.235  41.983  1.00  0.00    -0.228 OA
BRANCH  10  12
ATOM     12  O   UNL     1      -7.100  63.198  40.335  1.00  0.00    -0.302 OA
ATOM     13  H   UNL     1      -7.716  62.588  39.876  1.00  0.00     0.223 HD
ENDBRANCH  10  12
BRANCH  10  14
ATOM     14  O   UNL     1      -6.236  63.768  42.653  1.00  0.00    -0.302 OA
ATOM     15  H   UNL     1      -5.751  63.635  43.495  1.00  0.00     0.223 HD
ENDBRANCH  10  14
ENDBRANCH   9  10
ENDBRANCH   7   9
BRANCH   7  16
ATOM     16  O   UNL     1      -4.525  64.301  38.888  1.00  0.00    -0.302 OA
ATOM     17  H   UNL     1      -4.805  64.967  39.552  1.00  0.00     0.223 HD
ENDBRANCH   7  16
ENDBRANCH   6   7
ENDBRANCH   5   6
BRANCH   4  18
ATOM     18  O   UNL     1      -7.690  61.385  37.725  1.00  0.00    -0.385 OA
ATOM     19  H   UNL     1      -7.142  60.609  37.932  1.00  0.00     0.211 HD
ENDBRANCH   4  18
BRANCH   3  20
ATOM     20  C   UNL     1      -5.496  60.586  34.029  1.00  0.00     0.208 C 
BRANCH  20  21
ATOM     21  O   UNL     1      -4.175  61.101  34.050  1.00  0.00    -0.284 OA
BRANCH  21  22
ATOM     22  P   UNL     1      -3.825  62.366  33.102  1.00  0.00     0.469 P 
ATOM     23  O   UNL     1      -4.802  63.502  33.175  1.00  0.00    -0.228 OA
BRANCH  22  24
ATOM     24  O   UNL     1      -3.636  61.708  31.638  1.00  0.00    -0.303 OA
ATOM     25  H   UNL     1      -2.993  62.110  31.016  1.00  0.00     0.223 HD
ENDBRANCH  22  24
BRANCH  22  26
ATOM     26  O   UNL     1      -2.313  62.737  33.541  1.00  0.00    -0.303 OA
ATOM     27  H   UNL     1      -2.047  63.680  33.578  1.00  0.00     0.223 HD
ENDBRANCH  22  26
ENDBRANCH  21  22
ENDBRANCH  20  21
ENDBRANCH   3  20
BRANCH   2  28
ATOM     28  O   UNL     1      -8.323  61.734  35.073  1.00  0.00    -0.387 OA
ATOM     29  H   UNL     1      -8.840  61.461  35.850  1.00  0.00     0.211 HD
ENDBRANCH   2  28
TORSDOF 14
REMARK SMILES O=c1[nH]cc(F)c(=O)[nH]1
REMARK SMILES IDX 6 1 8 2 1 3 9 4 3 5 7 6 2 7 5 8 4 9
REMARK H PARENT 9 10 3 11
REMARK Flexibility Score: inf
ROOT
ATOM      1  F   UNL     1       0.252  58.574  37.568  1.00  0.00    -0.199 F 
ATOM      2  O   UNL     1      -1.920  59.790  36.467  1.00  0.00    -0.266 OA
ATOM      3  O   UNL     1      -4.363  59.059  40.332  1.00  0.00    -0.248 OA
ATOM      4  N   UNL     1      -3.166  59.435  38.392  1.00  0.00    -0.272 N 
ATOM      5  N   UNL     1      -2.177  58.337  40.216  1.00  0.00    -0.311 N 
ATOM      6  C   UNL     1      -2.019  59.355  37.609  1.00  0.00     0.289 A 
ATOM      7  C   UNL     1      -3.313  58.950  39.697  1.00  0.00     0.325 A 
ATOM      8  C   UNL     1      -0.887  58.682  38.276  1.00  0.00     0.204 A 
ATOM      9  C   UNL     1      -1.008  58.214  39.516  1.00  0.00     0.132 A 
ATOM     10  H   UNL     1      -3.975  59.890  37.977  1.00  0.00     0.175 HD
ATOM     11  H   UNL     1      -2.209  57.960  41.158  1.00  0.00     0.171 HD
ENDROOT
TORSDOF 0
ENDMDL
MODEL 10
REMARK VINA RESULT:    -9.081      1.671      2.191
REMARK INTER + INTRA:         -16.170
REMARK INTER:                 -14.760
REMARK INTRA:                  -1.410
REMARK UNBOUND:                -1.514
REMARK SMILES O=P(O)(O)OC[C@H]1O[C@H](O[P@@](=O)(O)OP(=O)(O)O)[C@H](O)[C@@H]1O
REMARK SMILES IDX 8 1 21 2 7 3 19 4 9 5 10 6 11 7 12 8 14 9 15 10 16 11 17 12
REMARK SMILES IDX 18 14 13 16 20 18 6 20 5 21 2 22 1 23 3 24 4 26 22 28
REMARK H PARENT 17 13 18 15 13 17 20 19 3 25 4 27 22 29
REMARK Flexibility Score: inf
ROOT
ATOM      1  O   UNL     1      -4.072  61.548  37.268  1.00  0.00    -0.341 OA
ATOM      2  C   UNL     1      -4.877  61.877  39.470  1.00  0.00     0.179 C 
ATOM      3  C   UNL     1      -3.620  61.688  38.629  1.00  0.00     0.179 C 
ATOM      4  C   UNL     1      -5.769  62.632  38.509  1.00  0.00     0.202 C 
ATOM      5  C   UNL     1      -5.471  61.886  37.216  1.00  0.00     0.293 C 
ENDROOT
BRANCH   5   6
ATOM      6  O   UNL     1      -5.804  62.672  36.086  1.00  0.00    -0.253 OA
BRANCH   6   7
ATOM      7  P   UNL     1      -6.634  62.017  34.860  1.00  0.00     0.483 P 
ATOM      8  O   UNL     1      -7.702  61.045  35.271  1.00  0.00    -0.228 OA
BRANCH   7   9
ATOM      9  O   UNL     1      -5.501  61.387  33.894  1.00  0.00    -0.185 OA
BRANCH   9  10
ATOM     10  P   UNL     1      -4.189  62.051  33.225  1.00  0.00     0.478 P 
ATOM     11  O   UNL     1      -3.890  61.581  31.832  1.00  0.00    -0.228 OA
BRANCH  10  12
ATOM     12  O   UNL     1      -3.033  61.757  34.316  1.00  0.00    -0.302 OA
ATOM     13  H   UNL     1      -2.098  61.926  34.073  1.00  0.00     0.223 HD
ENDBRANCH  10  12
BRANCH  10  14
ATOM     14  O   UNL     1      -4.456  63.638  33.376  1.00  0.00    -0.302 OA
ATOM     15  H   UNL     1      -4.466  64.034  34.274  1.00  0.00     0.223 HD
ENDBRANCH  10  14
ENDBRANCH   9  10
ENDBRANCH   7   9
BRANCH   7  16
ATOM     16  O   UNL     1      -7.176  63.287  34.017  1.00  0.00    -0.302 OA
ATOM     17  H   UNL     1      -7.440  63.158  33.081  1.00  0.00     0.223 HD
ENDBRANCH   7  16
ENDBRANCH   6   7
ENDBRANCH   5   6
BRANCH   4  18
ATOM     18  O   UNL     1      -5.331  63.986  38.412  1.00  0.00    -0.385 OA
ATOM     19  H   UNL     1      -5.656  64.363  37.578  1.00  0.00     0.211 HD
ENDBRANCH   4  18
BRANCH   3  20
ATOM     20  C   UNL     1      -2.811  60.466  39.027  1.00  0.00     0.208 C 
BRANCH  20  21
ATOM     21  O   UNL     1      -3.600  59.652  39.879  1.00  0.00    -0.284 OA
BRANCH  21  22
ATOM     22  P   UNL     1      -3.153  59.497  41.427  1.00  0.00     0.469 P 
ATOM     23  O   UNL     1      -4.281  59.300  42.397  1.00  0.00    -0.228 OA
BRANCH  22  24
ATOM     24  O   UNL     1      -2.231  60.798  41.694  1.00  0.00    -0.303 OA
ATOM     25  H   UNL     1      -1.554  61.046  41.028  1.00  0.00     0.223 HD
ENDBRANCH  22  24
BRANCH  22  26
ATOM     26  O   UNL     1      -2.081  58.287  41.373  1.00  0.00    -0.303 OA
ATOM     27  H   UNL     1      -2.098  57.606  42.079  1.00  0.00     0.223 HD
ENDBRANCH  22  26
ENDBRANCH  21  22
ENDBRANCH  20  21
ENDBRANCH   3  20
BRANCH   2  28
ATOM     28  O   UNL     1      -4.613  62.581  40.664  1.00  0.00    -0.387 OA
ATOM     29  H   UNL     1      -3.648  62.652  40.758  1.00  0.00     0.211 HD
ENDBRANCH   2  28
TORSDOF 14
REMARK SMILES O=c1[nH]cc(F)c(=O)[nH]1
REMARK SMILES IDX 6 1 8 2 1 3 9 4 3 5 7 6 2 7 5 8 4 9
REMARK H PARENT 9 10 3 11
REMARK Flexibility Score: inf
ROOT
ATOM      1  F   UNL     1      -3.044  56.544  35.538  1.00  0.00    -0.199 F 
ATOM      2  O   UNL     1      -3.744  55.787  33.019  1.00  0.00    -0.266 OA
ATOM      3  O   UNL     1      -7.491  58.504  33.183  1.00  0.00    -0.248 OA
ATOM      4  N   UNL     1      -5.629  57.139  33.076  1.00  0.00    -0.272 N 
ATOM      5  N   UNL     1      -6.077  58.408  35.000  1.00  0.00    -0.311 N 
ATOM      6  C   UNL     1      -4.467  56.586  33.605  1.00  0.00     0.289 A 
ATOM      7  C   UNL     1      -6.476  58.053  33.716  1.00  0.00     0.325 A 
ATOM      8  C   UNL     1      -4.156  57.045  34.973  1.00  0.00     0.204 A 
ATOM      9  C   UNL     1      -4.950  57.912  35.598  1.00  0.00     0.132 A 
ATOM     10  H   UNL     1      -5.887  56.855  32.135  1.00  0.00     0.175 HD
ATOM     11  H   UNL     1      -6.643  59.066  35.526  1.00  0.00     0.171 HD
ENDROOT
TORSDOF 0
ENDMDL
MODEL 11
REMARK VINA RESULT:    -9.077      2.603      6.170
REMARK INTER + INTRA:         -16.163
REMARK INTER:                 -15.172
REMARK INTRA:                  -0.991
REMARK UNBOUND:                -1.514
REMARK SMILES O=P(O)(O)OC[C@H]1O[C@H](O[P@@](=O)(O)OP(=O)(O)O)[C@H](O)[C@@H]1O
REMARK SMILES IDX 8 1 21 2 7 3 19 4 9 5 10 6 11 7 12 8 14 9 15 10 16 11 17 12
REMARK SMILES IDX 18 14 13 16 20 18 6 20 5 21 2 22 1 23 3 24 4 26 22 28
REMARK H PARENT 17 13 18 15 13 17 20 19 3 25 4 27 22 29
REMARK Flexibility Score: inf
ROOT
ATOM      1  O   UNL     1      -5.377  61.228  36.186  1.00  0.00    -0.341 OA
ATOM      2  C   UNL     1      -7.163  60.617  34.758  1.00  0.00     0.179 C 
ATOM      3  C   UNL     1      -5.687  60.386  35.059  1.00  0.00     0.179 C 
ATOM      4  C   UNL     1      -7.715  60.872  36.143  1.00  0.00     0.202 C 
ATOM      5  C   UNL     1      -6.610  61.746  36.721  1.00  0.00     0.293 C 
ENDROOT
BRANCH   5   6
ATOM      6  O   UNL     1      -6.641  61.737  38.137  1.00  0.00    -0.253 OA
BRANCH   6   7
ATOM      7  P   UNL     1      -7.382  62.932  38.939  1.00  0.00     0.483 P 
ATOM      8  O   UNL     1      -7.220  64.295  38.330  1.00  0.00    -0.228 OA
BRANCH   7   9
ATOM      9  O   UNL     1      -6.825  62.812  40.452  1.00  0.00    -0.185 OA
BRANCH   9  10
ATOM     10  P   UNL     1      -5.315  62.728  41.022  1.00  0.00     0.478 P 
ATOM     11  O   UNL     1      -5.151  63.210  42.433  1.00  0.00    -0.228 OA
BRANCH  10  12
ATOM     12  O   UNL     1      -4.459  63.533  39.913  1.00  0.00    -0.302 OA
ATOM     13  H   UNL     1      -4.928  64.131  39.293  1.00  0.00     0.223 HD
ENDBRANCH  10  12
BRANCH  10  14
ATOM     14  O   UNL     1      -4.906  61.185  40.767  1.00  0.00    -0.302 OA
ATOM     15  H   UNL     1      -5.474  60.476  41.136  1.00  0.00     0.223 HD
ENDBRANCH  10  14
ENDBRANCH   9  10
ENDBRANCH   7   9
BRANCH   7  16
ATOM     16  O   UNL     1      -8.917  62.438  39.069  1.00  0.00    -0.302 OA
ATOM     17  H   UNL     1      -9.151  61.798  39.775  1.00  0.00     0.223 HD
ENDBRANCH   7  16
ENDBRANCH   6   7
ENDBRANCH   5   6
BRANCH   4  18
ATOM     18  O   UNL     1      -7.798  59.641  36.860  1.00  0.00    -0.385 OA
ATOM     19  H   UNL     1      -8.585  59.155  36.561  1.00  0.00     0.211 HD
ENDBRANCH   4  18
BRANCH   3  20
ATOM     20  C   UNL     1      -4.777  60.734  33.895  1.00  0.00     0.208 C 
BRANCH  20  21
ATOM     21  O   UNL     1      -4.178  61.995  34.143  1.00  0.00    -0.284 OA
BRANCH  21  22
ATOM     22  P   UNL     1      -3.506  62.788  32.902  1.00  0.00     0.469 P 
ATOM     23  O   UNL     1      -4.127  64.118  32.588  1.00  0.00    -0.228 OA
BRANCH  22  24
ATOM     24  O   UNL     1      -3.533  61.710  31.698  1.00  0.00    -0.303 OA
ATOM     25  H   UNL     1      -3.554  62.033  30.772  1.00  0.00     0.223 HD
ENDBRANCH  22  24
BRANCH  22  26
ATOM     26  O   UNL     1      -1.944  62.846  33.316  1.00  0.00    -0.303 OA
ATOM     27  H   UNL     1      -1.633  62.308  34.075  1.00  0.00     0.223 HD
ENDBRANCH  22  26
ENDBRANCH  21  22
ENDBRANCH  20  21
ENDBRANCH   3  20
BRANCH   2  28
ATOM     28  O   UNL     1      -7.751  59.507  34.115  1.00  0.00    -0.387 OA
ATOM     29  H   UNL     1      -8.470  59.182  34.683  1.00  0.00     0.211 HD
ENDBRANCH   2  28
TORSDOF 14
REMARK SMILES O=c1[nH]cc(F)c(=O)[nH]1
REMARK SMILES IDX 6 1 8 2 1 3 9 4 3 5 7 6 2 7 5 8 4 9
REMARK H PARENT 9 10 3 11
REMARK Flexibility Score: inf
ROOT
ATOM      1  F   UNL     1      -1.821  58.069  37.238  1.00  0.00    -0.199 F 
ATOM      2  O   UNL     1      -2.899  59.215  39.460  1.00  0.00    -0.266 OA
ATOM      3  O   UNL     1      -2.965  63.346  37.367  1.00  0.00    -0.248 OA
ATOM      4  N   UNL     1      -2.941  61.296  38.434  1.00  0.00    -0.272 N 
ATOM      5  N   UNL     1      -2.154  61.511  36.234  1.00  0.00    -0.311 N 
ATOM      6  C   UNL     1      -2.680  59.931  38.488  1.00  0.00     0.289 A 
ATOM      7  C   UNL     1      -2.705  62.142  37.344  1.00  0.00     0.325 A 
ATOM      8  C   UNL     1      -2.097  59.386  37.247  1.00  0.00     0.204 A 
ATOM      9  C   UNL     1      -1.864  60.174  36.200  1.00  0.00     0.132 A 
ATOM     10  H   UNL     1      -3.344  61.721  39.265  1.00  0.00     0.175 HD
ATOM     11  H   UNL     1      -1.954  62.061  35.404  1.00  0.00     0.171 HD
ENDROOT
TORSDOF 0
ENDMDL
MODEL 12
REMARK VINA RESULT:    -9.071      2.053      3.517
REMARK INTER + INTRA:         -16.154
REMARK INTER:                 -14.848
REMARK INTRA:                  -1.306
REMARK UNBOUND:                -1.514
REMARK SMILES O=P(O)(O)OC[C@H]1O[C@H](O[P@@](=O)(O)OP(=O)(O)O)[C@H](O)[C@@H]1O
REMARK SMILES IDX 8 1 21 2 7 3 19 4 9 5 10 6 11 7 12 8 14 9 15 10 16 11 17 12
REMARK SMILES IDX 18 14 13 16 20 18 6 20 5 21 2 22 1 23 3 24 4 26 22 28
REMARK H PARENT 17 13 18 15 13 17 20 19 3 25 4 27 22 29
REMARK Flexibility Score: inf
ROOT
ATOM      1  O   UNL     1      -4.010  59.874  38.302  1.00  0.00    -0.341 OA
ATOM      2  C   UNL     1      -2.070  59.078  39.399  1.00  0.00     0.179 C 
ATOM      3  C   UNL     1      -3.593  59.051  39.408  1.00  0.00     0.179 C 
ATOM      4  C   UNL     1      -1.781  59.184  37.917  1.00  0.00     0.202 C 
ATOM      5  C   UNL     1      -2.853  60.181  37.500  1.00  0.00     0.293 C 
ENDROOT
BRANCH   5   6
ATOM      6  O   UNL     1      -3.112  60.100  36.110  1.00  0.00    -0.253 OA
BRANCH   6   7
ATOM      7  P   UNL     1      -4.105  61.167  35.407  1.00  0.00     0.483 P 
ATOM      8  O   UNL     1      -5.306  60.564  34.738  1.00  0.00    -0.228 OA
BRANCH   7   9
ATOM      9  O   UNL     1      -3.151  62.017  34.416  1.00  0.00    -0.185 OA
BRANCH   9  10
ATOM     10  P   UNL     1      -3.510  63.010  33.193  1.00  0.00     0.478 P 
ATOM     11  O   UNL     1      -4.910  63.548  33.212  1.00  0.00    -0.228 OA
BRANCH  10  12
ATOM     12  O   UNL     1      -3.122  62.139  31.888  1.00  0.00    -0.302 OA
ATOM     13  H   UNL     1      -2.936  62.605  31.045  1.00  0.00     0.223 HD
ENDBRANCH  10  12
BRANCH  10  14
ATOM     14  O   UNL     1      -2.341  64.125  33.263  1.00  0.00    -0.302 OA
ATOM     15  H   UNL     1      -2.586  65.062  33.418  1.00  0.00     0.223 HD
ENDBRANCH  10  14
ENDBRANCH   9  10
ENDBRANCH   7   9
BRANCH   7  16
ATOM     16  O   UNL     1      -4.456  62.224  36.581  1.00  0.00    -0.302 OA
ATOM     17  H   UNL     1      -4.084  62.078  37.477  1.00  0.00     0.223 HD
ENDBRANCH   7  16
ENDBRANCH   6   7
ENDBRANCH   5   6
BRANCH   4  18
ATOM     18  O   UNL     1      -2.009  57.921  37.294  1.00  0.00    -0.385 OA
ATOM     19  H   UNL     1      -1.157  57.555  37.002  1.00  0.00     0.211 HD
ENDBRANCH   4  18
BRANCH   3  20
ATOM     20  C   UNL     1      -4.195  59.583  40.697  1.00  0.00     0.208 C 
BRANCH  20  21
ATOM     21  O   UNL     1      -5.205  60.525  40.375  1.00  0.00    -0.284 OA
BRANCH  21  22
ATOM     22  P   UNL     1      -4.978  62.072  40.795  1.00  0.00     0.469 P 
ATOM     23  O   UNL     1      -6.202  62.777  41.303  1.00  0.00    -0.228 OA
BRANCH  22  24
ATOM     24  O   UNL     1      -4.295  62.729  39.486  1.00  0.00    -0.303 OA
ATOM     25  H   UNL     1      -4.854  62.920  38.703  1.00  0.00     0.223 HD
ENDBRANCH  22  24
BRANCH  22  26
ATOM     26  O   UNL     1      -3.755  61.983  41.850  1.00  0.00    -0.303 OA
ATOM     27  H   UNL     1      -3.287  62.807  42.103  1.00  0.00     0.223 HD
ENDBRANCH  22  26
ENDBRANCH  21  22
ENDBRANCH  20  21
ENDBRANCH   3  20
BRANCH   2  28
ATOM     28  O   UNL     1      -1.517  57.927  39.998  1.00  0.00    -0.387 OA
ATOM     29  H   UNL     1      -0.651  58.172  40.367  1.00  0.00     0.211 HD
ENDBRANCH   2  28
TORSDOF 14
REMARK SMILES O=c1[nH]cc(F)c(=O)[nH]1
REMARK SMILES IDX 6 1 8 2 1 3 9 4 3 5 7 6 2 7 5 8 4 9
REMARK H PARENT 9 10 3 11
REMARK Flexibility Score: inf
ROOT
ATOM      1  F   UNL     1      -4.481  56.299  32.857  1.00  0.00    -0.199 F 
ATOM      2  O   UNL     1      -3.060  56.292  35.179  1.00  0.00    -0.266 OA
ATOM      3  O   UNL     1      -6.622  58.207  37.433  1.00  0.00    -0.248 OA
ATOM      4  N   UNL     1      -4.830  57.252  36.331  1.00  0.00    -0.272 N 
ATOM      5  N   UNL     1      -6.814  57.754  35.182  1.00  0.00    -0.311 N 
ATOM      6  C   UNL     1      -4.201  56.741  35.200  1.00  0.00     0.289 A 
ATOM      7  C   UNL     1      -6.129  57.771  36.392  1.00  0.00     0.325 A 
ATOM      8  C   UNL     1      -5.035  56.781  33.984  1.00  0.00     0.204 A 
ATOM      9  C   UNL     1      -6.272  57.271  34.022  1.00  0.00     0.132 A 
ATOM     10  H   UNL     1      -4.296  57.248  37.196  1.00  0.00     0.175 HD
ATOM     11  H   UNL     1      -7.762  58.116  35.148  1.00  0.00     0.171 HD
ENDROOT
TORSDOF 0
ENDMDL
MODEL 13
REMARK VINA RESULT:    -9.058      2.969      6.332
REMARK INTER + INTRA:         -16.132
REMARK INTER:                 -14.662
REMARK INTRA:                  -1.470
REMARK UNBOUND:                -1.514
REMARK SMILES O=P(O)(O)OC[C@H]1O[C@H](O[P@@](=O)(O)OP(=O)(O)O)[C@H](O)[C@@H]1O
REMARK SMILES IDX 8 1 21 2 7 3 19 4 9 5 10 6 11 7 12 8 14 9 15 10 16 11 17 12
REMARK SMILES IDX 18 14 13 16 20 18 6 20 5 21 2 22 1 23 3 24 4 26 22 28
REMARK H PARENT 17 13 18 15 13 17 20 19 3 25 4 27 22 29
REMARK Flexibility Score: inf
ROOT
ATOM      1  O   UNL     1      -6.252  59.689  34.430  1.00  0.00    -0.341 OA
ATOM      2  C   UNL     1      -5.548  57.489  33.911  1.00  0.00     0.179 C 
ATOM      3  C   UNL     1      -6.511  58.603  33.519  1.00  0.00     0.179 C 
ATOM      4  C   UNL     1      -4.351  58.282  34.388  1.00  0.00     0.202 C 
ATOM      5  C   UNL     1      -5.049  59.390  35.164  1.00  0.00     0.293 C 
ENDROOT
BRANCH   5   6
ATOM      6  O   UNL     1      -4.204  60.518  35.315  1.00  0.00    -0.253 OA
BRANCH   6   7
ATOM      7  P   UNL     1      -4.845  61.983  35.565  1.00  0.00     0.483 P 
ATOM      8  O   UNL     1      -6.208  61.974  36.194  1.00  0.00    -0.228 OA
BRANCH   7   9
ATOM      9  O   UNL     1      -4.787  62.703  34.118  1.00  0.00    -0.185 OA
BRANCH   9  10
ATOM     10  P   UNL     1      -3.627  62.734  32.995  1.00  0.00     0.478 P 
ATOM     11  O   UNL     1      -3.845  61.799  31.842  1.00  0.00    -0.228 OA
BRANCH  10  12
ATOM     12  O   UNL     1      -2.281  62.472  33.851  1.00  0.00    -0.302 OA
ATOM     13  H   UNL     1      -2.118  61.576  34.216  1.00  0.00     0.223 HD
ENDBRANCH  10  12
BRANCH  10  14
ATOM     14  O   UNL     1      -3.527  64.300  32.606  1.00  0.00    -0.302 OA
ATOM     15  H   UNL     1      -3.277  64.947  33.299  1.00  0.00     0.223 HD
ENDBRANCH  10  14
ENDBRANCH   9  10
ENDBRANCH   7   9
BRANCH   7  16
ATOM     16  O   UNL     1      -3.721  62.773  36.418  1.00  0.00    -0.302 OA
ATOM     17  H   UNL     1      -3.786  62.780  37.397  1.00  0.00     0.223 HD
ENDBRANCH   7  16
ENDBRANCH   6   7
ENDBRANCH   5   6
BRANCH   4  18
ATOM     18  O   UNL     1      -3.657  58.824  33.266  1.00  0.00    -0.385 OA
ATOM     19  H   UNL     1      -3.118  58.125  32.861  1.00  0.00     0.211 HD
ENDBRANCH   4  18
BRANCH   3  20
ATOM     20  C   UNL     1      -7.970  58.195  33.612  1.00  0.00     0.208 C 
BRANCH  20  21
ATOM     21  O   UNL     1      -8.763  59.182  32.973  1.00  0.00    -0.284 OA
BRANCH  21  22
ATOM     22  P   UNL     1      -9.802  60.037  33.873  1.00  0.00     0.469 P 
ATOM     23  O   UNL     1     -10.944  59.250  34.444  1.00  0.00    -0.228 OA
BRANCH  22  24
ATOM     24  O   UNL     1     -10.222  61.266  32.910  1.00  0.00    -0.303 OA
ATOM     25  H   UNL     1     -10.958  61.141  32.273  1.00  0.00     0.223 HD
ENDBRANCH  22  24
BRANCH  22  26
ATOM     26  O   UNL     1      -8.839  60.736  34.968  1.00  0.00    -0.303 OA
ATOM     27  H   UNL     1      -7.960  61.068  34.685  1.00  0.00     0.223 HD
ENDBRANCH  22  26
ENDBRANCH  21  22
ENDBRANCH  20  21
ENDBRANCH   3  20
BRANCH   2  28
ATOM     28  O   UNL     1      -5.260  56.634  32.827  1.00  0.00    -0.387 OA
ATOM     29  H   UNL     1      -4.312  56.718  32.628  1.00  0.00     0.211 HD
ENDBRANCH   2  28
TORSDOF 14
REMARK SMILES O=c1[nH]cc(F)c(=O)[nH]1
REMARK SMILES IDX 6 1 8 2 1 3 9 4 3 5 7 6 2 7 5 8 4 9
REMARK H PARENT 9 10 3 11
REMARK Flexibility Score: inf
ROOT
ATOM      1  F   UNL     1      -1.404  58.916  37.237  1.00  0.00    -0.199 F 
ATOM      2  O   UNL     1      -0.141  57.842  39.396  1.00  0.00    -0.266 OA
ATOM      3  O   UNL     1      -3.475  59.413  42.200  1.00  0.00    -0.248 OA
ATOM      4  N   UNL     1      -1.797  58.619  40.823  1.00  0.00    -0.272 N 
ATOM      5  N   UNL     1      -3.604  59.828  39.937  1.00  0.00    -0.311 N 
ATOM      6  C   UNL     1      -1.194  58.443  39.582  1.00  0.00     0.289 A 
ATOM      7  C   UNL     1      -2.997  59.297  41.070  1.00  0.00     0.325 A 
ATOM      8  C   UNL     1      -1.938  59.053  38.464  1.00  0.00     0.204 A 
ATOM      9  C   UNL     1      -3.080  59.703  38.680  1.00  0.00     0.132 A 
ATOM     10  H   UNL     1      -1.323  58.217  41.627  1.00  0.00     0.175 HD
ATOM     11  H   UNL     1      -4.478  60.335  40.039  1.00  0.00     0.171 HD
ENDROOT
TORSDOF 0
ENDMDL
MODEL 14
REMARK VINA RESULT:    -9.030      2.549      3.128
REMARK INTER + INTRA:         -16.088
REMARK INTER:                 -14.892
REMARK INTRA:                  -1.196
REMARK UNBOUND:                -1.514
REMARK SMILES O=P(O)(O)OC[C@H]1O[C@H](O[P@@](=O)(O)OP(=O)(O)O)[C@H](O)[C@@H]1O
REMARK SMILES IDX 8 1 21 2 7 3 19 4 9 5 10 6 11 7 12 8 14 9 15 10 16 11 17 12
REMARK SMILES IDX 18 14 13 16 20 18 6 20 5 21 2 22 1 23 3 24 4 26 22 28
REMARK H PARENT 17 13 18 15 13 17 20 19 3 25 4 27 22 29
REMARK Flexibility Score: inf
ROOT
ATOM      1  O   UNL     1      -5.598  61.046  38.590  1.00  0.00    -0.341 OA
ATOM      2  C   UNL     1      -6.609  62.474  40.184  1.00  0.00     0.179 C 
ATOM      3  C   UNL     1      -5.586  61.361  39.996  1.00  0.00     0.179 C 
ATOM      4  C   UNL     1      -6.484  63.221  38.874  1.00  0.00     0.202 C 
ATOM      5  C   UNL     1      -6.367  62.053  37.905  1.00  0.00     0.293 C 
ENDROOT
BRANCH   5   6
ATOM      6  O   UNL     1      -5.773  62.461  36.685  1.00  0.00    -0.253 OA
BRANCH   6   7
ATOM      7  P   UNL     1      -5.721  61.441  35.429  1.00  0.00     0.483 P 
ATOM      8  O   UNL     1      -4.754  60.302  35.582  1.00  0.00    -0.228 OA
BRANCH   7   9
ATOM      9  O   UNL     1      -5.433  62.387  34.150  1.00  0.00    -0.185 OA
BRANCH   9  10
ATOM     10  P   UNL     1      -4.065  62.704  33.352  1.00  0.00     0.478 P 
ATOM     11  O   UNL     1      -4.111  63.932  32.492  1.00  0.00    -0.228 OA
BRANCH  10  12
ATOM     12  O   UNL     1      -3.771  61.322  32.566  1.00  0.00    -0.302 OA
ATOM     13  H   UNL     1      -3.125  61.325  31.827  1.00  0.00     0.223 HD
ENDBRANCH  10  12
BRANCH  10  14
ATOM     14  O   UNL     1      -2.947  62.719  34.519  1.00  0.00    -0.302 OA
ATOM     15  H   UNL     1      -2.328  61.962  34.594  1.00  0.00     0.223 HD
ENDBRANCH  10  14
ENDBRANCH   9  10
ENDBRANCH   7   9
BRANCH   7  16
ATOM     16  O   UNL     1      -7.259  60.986  35.216  1.00  0.00    -0.302 OA
ATOM     17  H   UNL     1      -7.613  60.926  34.303  1.00  0.00     0.223 HD
ENDBRANCH   7  16
ENDBRANCH   6   7
ENDBRANCH   5   6
BRANCH   4  18
ATOM     18  O   UNL     1      -5.282  63.988  38.873  1.00  0.00    -0.385 OA
ATOM     19  H   UNL     1      -4.615  63.529  39.411  1.00  0.00     0.211 HD
ENDBRANCH   4  18
BRANCH   3  20
ATOM     20  C   UNL     1      -5.902  60.114  40.802  1.00  0.00     0.208 C 
BRANCH  20  21
ATOM     21  O   UNL     1      -5.994  60.466  42.173  1.00  0.00    -0.284 OA
BRANCH  21  22
ATOM     22  P   UNL     1      -4.660  60.376  43.084  1.00  0.00     0.469 P 
ATOM     23  O   UNL     1      -4.883  59.905  44.491  1.00  0.00    -0.228 OA
BRANCH  22  24
ATOM     24  O   UNL     1      -3.999  61.844  42.944  1.00  0.00    -0.303 OA
ATOM     25  H   UNL     1      -4.587  62.622  42.834  1.00  0.00     0.223 HD
ENDBRANCH  22  24
BRANCH  22  26
ATOM     26  O   UNL     1      -3.682  59.441  42.199  1.00  0.00    -0.303 OA
ATOM     27  H   UNL     1      -2.899  59.846  41.769  1.00  0.00     0.223 HD
ENDBRANCH  22  26
ENDBRANCH  21  22
ENDBRANCH  20  21
ENDBRANCH   3  20
BRANCH   2  28
ATOM     28  O   UNL     1      -6.323  63.270  41.314  1.00  0.00    -0.387 OA
ATOM     29  H   UNL     1      -6.933  64.027  41.305  1.00  0.00     0.211 HD
ENDBRANCH   2  28
TORSDOF 14
REMARK SMILES O=c1[nH]cc(F)c(=O)[nH]1
REMARK SMILES IDX 6 1 8 2 1 3 9 4 3 5 7 6 2 7 5 8 4 9
REMARK H PARENT 9 10 3 11
REMARK Flexibility Score: inf
ROOT
ATOM      1  F   UNL     1      -1.289  57.671  37.638  1.00  0.00    -0.199 F 
ATOM      2  O   UNL     1      -2.402  58.803  39.849  1.00  0.00    -0.266 OA
ATOM      3  O   UNL     1      -2.761  62.868  37.660  1.00  0.00    -0.248 OA
ATOM      4  N   UNL     1      -2.591  60.851  38.775  1.00  0.00    -0.272 N 
ATOM      5  N   UNL     1      -1.854  61.059  36.557  1.00  0.00    -0.311 N 
ATOM      6  C   UNL     1      -2.243  59.507  38.857  1.00  0.00     0.289 A 
ATOM      7  C   UNL     1      -2.426  61.682  37.661  1.00  0.00     0.325 A 
ATOM      8  C   UNL     1      -1.646  58.968  37.620  1.00  0.00     0.204 A 
ATOM      9  C   UNL     1      -1.480  59.743  36.550  1.00  0.00     0.132 A 
ATOM     10  H   UNL     1      -3.007  61.270  39.603  1.00  0.00     0.175 HD
ATOM     11  H   UNL     1      -1.702  61.600  35.711  1.00  0.00     0.171 HD
ENDROOT
TORSDOF 0
ENDMDL
MODEL 15
REMARK VINA RESULT:    -8.985      2.541      4.073
REMARK INTER + INTRA:         -16.015
REMARK INTER:                 -14.453
REMARK INTRA:                  -1.562
REMARK UNBOUND:                -1.514
REMARK SMILES O=P(O)(O)OC[C@H]1O[C@H](O[P@@](=O)(O)OP(=O)(O)O)[C@H](O)[C@@H]1O
REMARK SMILES IDX 8 1 21 2 7 3 19 4 9 5 10 6 11 7 12 8 14 9 15 10 16 11 17 12
REMARK SMILES IDX 18 14 13 16 20 18 6 20 5 21 2 22 1 23 3 24 4 26 22 28
REMARK H PARENT 17 13 18 15 13 17 20 19 3 25 4 27 22 29
REMARK Flexibility Score: inf
ROOT
ATOM      1  O   UNL     1      -3.886  60.140  38.548  1.00  0.00    -0.341 OA
ATOM      2  C   UNL     1      -2.079  59.124  39.690  1.00  0.00     0.179 C 
ATOM      3  C   UNL     1      -3.596  59.264  39.654  1.00  0.00     0.179 C 
ATOM      4  C   UNL     1      -1.735  59.213  38.220  1.00  0.00     0.202 C 
ATOM      5  C   UNL     1      -2.678  60.326  37.785  1.00  0.00     0.293 C 
ENDROOT
BRANCH   5   6
ATOM      6  O   UNL     1      -2.901  60.289  36.387  1.00  0.00    -0.253 OA
BRANCH   6   7
ATOM      7  P   UNL     1      -3.437  61.608  35.617  1.00  0.00     0.483 P 
ATOM      8  O   UNL     1      -3.832  62.744  36.515  1.00  0.00    -0.228 OA
BRANCH   7   9
ATOM      9  O   UNL     1      -4.631  61.067  34.669  1.00  0.00    -0.185 OA
BRANCH   9  10
ATOM     10  P   UNL     1      -4.619  60.009  33.449  1.00  0.00     0.478 P 
ATOM     11  O   UNL     1      -5.943  59.365  33.165  1.00  0.00    -0.228 OA
BRANCH  10  12
ATOM     12  O   UNL     1      -3.429  58.993  33.856  1.00  0.00    -0.302 OA
ATOM     13  H   UNL     1      -3.655  58.164  34.328  1.00  0.00     0.223 HD
ENDBRANCH  10  12
BRANCH  10  14
ATOM     14  O   UNL     1      -3.987  60.858  32.226  1.00  0.00    -0.302 OA
ATOM     15  H   UNL     1      -4.271  60.653  31.309  1.00  0.00     0.223 HD
ENDBRANCH  10  14
ENDBRANCH   9  10
ENDBRANCH   7   9
BRANCH   7  16
ATOM     16  O   UNL     1      -2.261  61.966  34.565  1.00  0.00    -0.302 OA
ATOM     17  H   UNL     1      -1.456  61.406  34.546  1.00  0.00     0.223 HD
ENDBRANCH   7  16
ENDBRANCH   6   7
ENDBRANCH   5   6
BRANCH   4  18
ATOM     18  O   UNL     1      -2.081  57.990  37.572  1.00  0.00    -0.385 OA
ATOM     19  H   UNL     1      -2.178  57.294  38.243  1.00  0.00     0.211 HD
ENDBRANCH   4  18
BRANCH   3  20
ATOM     20  C   UNL     1      -4.175  59.845  40.932  1.00  0.00     0.208 C 
BRANCH  20  21
ATOM     21  O   UNL     1      -3.755  61.194  41.052  1.00  0.00    -0.284 OA
BRANCH  21  22
ATOM     22  P   UNL     1      -4.873  62.360  40.957  1.00  0.00     0.469 P 
ATOM     23  O   UNL     1      -6.165  62.059  41.658  1.00  0.00    -0.228 OA
BRANCH  22  24
ATOM     24  O   UNL     1      -4.997  62.645  39.371  1.00  0.00    -0.303 OA
ATOM     25  H   UNL     1      -4.782  63.540  39.031  1.00  0.00     0.223 HD
ENDBRANCH  22  24
BRANCH  22  26
ATOM     26  O   UNL     1      -4.085  63.660  41.509  1.00  0.00    -0.303 OA
ATOM     27  H   UNL     1      -3.469  63.557  42.265  1.00  0.00     0.223 HD
ENDBRANCH  22  26
ENDBRANCH  21  22
ENDBRANCH  20  21
ENDBRANCH   3  20
BRANCH   2  28
ATOM     28  O   UNL     1      -1.674  57.912  40.290  1.00  0.00    -0.387 OA
ATOM     29  H   UNL     1      -1.930  57.946  41.227  1.00  0.00     0.211 HD
ENDBRANCH   2  28
TORSDOF 14
REMARK SMILES O=c1[nH]cc(F)c(=O)[nH]1
REMARK SMILES IDX 6 1 8 2 1 3 9 4 3 5 7 6 2 7 5 8 4 9
REMARK H PARENT 9 10 3 11
REMARK Flexibility Score: inf
ROOT
ATOM      1  F   UNL     1      -8.144  59.169  38.979  1.00  0.00    -0.199 F 
ATOM      2  O   UNL     1      -7.149  60.496  36.821  1.00  0.00    -0.266 OA
ATOM      3  O   UNL     1      -4.320  56.954  35.875  1.00  0.00    -0.248 OA
ATOM      4  N   UNL     1      -5.721  58.736  36.327  1.00  0.00    -0.272 N 
ATOM      5  N   UNL     1      -5.730  56.828  37.693  1.00  0.00    -0.311 N 
ATOM      6  C   UNL     1      -6.704  59.381  37.069  1.00  0.00     0.289 A 
ATOM      7  C   UNL     1      -5.191  57.465  36.581  1.00  0.00     0.325 A 
ATOM      8  C   UNL     1      -7.191  58.598  38.222  1.00  0.00     0.204 A 
ATOM      9  C   UNL     1      -6.699  57.388  38.480  1.00  0.00     0.132 A 
ATOM     10  H   UNL     1      -5.352  59.234  35.521  1.00  0.00     0.175 HD
ATOM     11  H   UNL     1      -5.395  55.902  37.941  1.00  0.00     0.171 HD
ENDROOT
TORSDOF 0
ENDMDL
MODEL 16
REMARK VINA RESULT:    -8.976      9.103     11.023
REMARK INTER + INTRA:         -16.000
REMARK INTER:                 -13.646
REMARK INTRA:                  -2.354
REMARK UNBOUND:                -1.514
REMARK SMILES O=P(O)(O)OC[C@H]1O[C@H](O[P@@](=O)(O)OP(=O)(O)O)[C@H](O)[C@@H]1O
REMARK SMILES IDX 8 1 21 2 7 3 19 4 9 5 10 6 11 7 12 8 14 9 15 10 16 11 17 12
REMARK SMILES IDX 18 14 13 16 20 18 6 20 5 21 2 22 1 23 3 24 4 26 22 28
REMARK H PARENT 17 13 18 15 13 17 20 19 3 25 4 27 22 29
REMARK Flexibility Score: inf
ROOT
ATOM      1  O   UNL     1      -3.830  59.400  34.954  1.00  0.00    -0.341 OA
ATOM      2  C   UNL     1      -5.432  57.771  34.334  1.00  0.00     0.179 C 
ATOM      3  C   UNL     1      -4.651  58.985  33.845  1.00  0.00     0.179 C 
ATOM      4  C   UNL     1      -4.438  57.138  35.283  1.00  0.00     0.202 C 
ATOM      5  C   UNL     1      -3.886  58.380  35.969  1.00  0.00     0.293 C 
ENDROOT
BRANCH   5   6
ATOM      6  O   UNL     1      -2.623  58.120  36.556  1.00  0.00    -0.253 OA
BRANCH   6   7
ATOM      7  P   UNL     1      -1.742  59.338  37.155  1.00  0.00     0.483 P 
ATOM      8  O   UNL     1      -0.502  58.917  37.889  1.00  0.00    -0.228 OA
BRANCH   7   9
ATOM      9  O   UNL     1      -2.784  60.192  38.049  1.00  0.00    -0.185 OA
BRANCH   9  10
ATOM     10  P   UNL     1      -3.202  61.751  37.992  1.00  0.00     0.478 P 
ATOM     11  O   UNL     1      -3.861  62.269  39.236  1.00  0.00    -0.228 OA
BRANCH  10  12
ATOM     12  O   UNL     1      -4.094  61.843  36.648  1.00  0.00    -0.302 OA
ATOM     13  H   UNL     1      -5.062  61.986  36.729  1.00  0.00     0.223 HD
ENDBRANCH  10  12
BRANCH  10  14
ATOM     14  O   UNL     1      -1.824  62.491  37.581  1.00  0.00    -0.302 OA
ATOM     15  H   UNL     1      -1.425  63.133  38.206  1.00  0.00     0.223 HD
ENDBRANCH  10  14
ENDBRANCH   9  10
ENDBRANCH   7   9
BRANCH   7  16
ATOM     16  O   UNL     1      -1.470  60.301  35.883  1.00  0.00    -0.302 OA
ATOM     17  H   UNL     1      -2.169  60.396  35.202  1.00  0.00     0.223 HD
ENDBRANCH   7  16
ENDBRANCH   6   7
ENDBRANCH   5   6
BRANCH   4  18
ATOM     18  O   UNL     1      -3.411  56.488  34.537  1.00  0.00    -0.385 OA
ATOM     19  H   UNL     1      -3.771  56.216  33.675  1.00  0.00     0.211 HD
ENDBRANCH   4  18
BRANCH   3  20
ATOM     20  C   UNL     1      -5.542  60.135  33.410  1.00  0.00     0.208 C 
BRANCH  20  21
ATOM     21  O   UNL     1      -5.030  61.341  33.953  1.00  0.00    -0.284 OA
BRANCH  21  22
ATOM     22  P   UNL     1      -3.982  62.201  33.069  1.00  0.00     0.469 P 
ATOM     23  O   UNL     1      -3.780  61.707  31.667  1.00  0.00    -0.228 OA
BRANCH  22  24
ATOM     24  O   UNL     1      -2.651  62.244  33.986  1.00  0.00    -0.303 OA
ATOM     25  H   UNL     1      -2.069  61.454  34.016  1.00  0.00     0.223 HD
ENDBRANCH  22  24
BRANCH  22  26
ATOM     26  O   UNL     1      -4.563  63.706  33.186  1.00  0.00    -0.303 OA
ATOM     27  H   UNL     1      -5.448  63.903  32.812  1.00  0.00     0.223 HD
ENDBRANCH  22  26
ENDBRANCH  21  22
ENDBRANCH  20  21
ENDBRANCH   3  20
BRANCH   2  28
ATOM     28  O   UNL     1      -5.812  56.925  33.272  1.00  0.00    -0.387 OA
ATOM     29  H   UNL     1      -5.696  56.006  33.569  1.00  0.00     0.211 HD
ENDBRANCH   2  28
TORSDOF 14
REMARK SMILES O=c1[nH]cc(F)c(=O)[nH]1
REMARK SMILES IDX 6 1 8 2 1 3 9 4 3 5 7 6 2 7 5 8 4 9
REMARK H PARENT 9 10 3 11
REMARK Flexibility Score: inf
ROOT
ATOM      1  F   UNL     1       8.267  50.454  25.692  1.00  0.00    -0.199 F 
ATOM      2  O   UNL     1       7.138  47.995  25.395  1.00  0.00    -0.266 OA
ATOM      3  O   UNL     1       3.499  49.863  23.224  1.00  0.00    -0.248 OA
ATOM      4  N   UNL     1       5.304  48.906  24.306  1.00  0.00    -0.272 N 
ATOM      5  N   UNL     1       5.203  51.226  23.965  1.00  0.00    -0.311 N 
ATOM      6  C   UNL     1       6.533  48.966  24.953  1.00  0.00     0.289 A 
ATOM      7  C   UNL     1       4.587  49.992  23.789  1.00  0.00     0.325 A 
ATOM      8  C   UNL     1       7.078  50.332  25.075  1.00  0.00     0.204 A 
ATOM      9  C   UNL     1       6.411  51.377  24.590  1.00  0.00     0.132 A 
ATOM     10  H   UNL     1       4.885  47.986  24.196  1.00  0.00     0.175 HD
ATOM     11  H   UNL     1       4.742  52.061  23.617  1.00  0.00     0.171 HD
ENDROOT
TORSDOF 0
ENDMDL
MODEL 17
REMARK VINA RESULT:    -8.921      2.376      4.226
REMARK INTER + INTRA:         -15.912
REMARK INTER:                 -14.575
REMARK INTRA:                  -1.337
REMARK UNBOUND:                -1.514
REMARK SMILES O=P(O)(O)OC[C@H]1O[C@H](O[P@@](=O)(O)OP(=O)(O)O)[C@H](O)[C@@H]1O
REMARK SMILES IDX 8 1 21 2 7 3 19 4 9 5 10 6 11 7 12 8 14 9 15 10 16 11 17 12
REMARK SMILES IDX 18 14 13 16 20 18 6 20 5 21 2 22 1 23 3 24 4 26 22 28
REMARK H PARENT 17 13 18 15 13 17 20 19 3 25 4 27 22 29
REMARK Flexibility Score: inf
ROOT
ATOM      1  O   UNL     1      -4.730  60.433  36.967  1.00  0.00    -0.341 OA
ATOM      2  C   UNL     1      -2.754  61.302  35.995  1.00  0.00     0.179 C 
ATOM      3  C   UNL     1      -3.300  60.254  36.956  1.00  0.00     0.179 C 
ATOM      4  C   UNL     1      -3.874  61.391  34.981  1.00  0.00     0.202 C 
ATOM      5  C   UNL     1      -5.083  61.339  35.904  1.00  0.00     0.293 C 
ENDROOT
BRANCH   5   6
ATOM      6  O   UNL     1      -6.244  60.934  35.201  1.00  0.00    -0.253 OA
BRANCH   6   7
ATOM      7  P   UNL     1      -7.644  61.714  35.430  1.00  0.00     0.483 P 
ATOM      8  O   UNL     1      -7.535  63.212  35.440  1.00  0.00    -0.228 OA
BRANCH   7   9
ATOM      9  O   UNL     1      -8.240  61.085  36.795  1.00  0.00    -0.185 OA
BRANCH   9  10
ATOM     10  P   UNL     1      -8.489  59.550  37.235  1.00  0.00     0.478 P 
ATOM     11  O   UNL     1      -9.576  59.358  38.250  1.00  0.00    -0.228 OA
BRANCH  10  12
ATOM     12  O   UNL     1      -7.020  59.058  37.695  1.00  0.00    -0.302 OA
ATOM     13  H   UNL     1      -6.941  58.456  38.466  1.00  0.00     0.223 HD
ENDBRANCH  10  12
BRANCH  10  14
ATOM     14  O   UNL     1      -8.716  58.791  35.826  1.00  0.00    -0.302 OA
ATOM     15  H   UNL     1      -9.581  58.362  35.652  1.00  0.00     0.223 HD
ENDBRANCH  10  14
ENDBRANCH   9  10
ENDBRANCH   7   9
BRANCH   7  16
ATOM     16  O   UNL     1      -8.626  61.123  34.289  1.00  0.00    -0.302 OA
ATOM     17  H   UNL     1      -9.315  61.708  33.907  1.00  0.00     0.223 HD
ENDBRANCH   7  16
ENDBRANCH   6   7
ENDBRANCH   5   6
BRANCH   4  18
ATOM     18  O   UNL     1      -3.846  60.243  34.135  1.00  0.00    -0.385 OA
ATOM     19  H   UNL     1      -3.721  59.450  34.684  1.00  0.00     0.211 HD
ENDBRANCH   4  18
BRANCH   3  20
ATOM     20  C   UNL     1      -2.757  60.393  38.367  1.00  0.00     0.208 C 
BRANCH  20  21
ATOM     21  O   UNL     1      -2.741  59.114  38.979  1.00  0.00    -0.284 OA
BRANCH  21  22
ATOM     22  P   UNL     1      -2.982  59.020  40.577  1.00  0.00     0.469 P 
ATOM     23  O   UNL     1      -2.926  60.332  41.304  1.00  0.00    -0.228 OA
BRANCH  22  24
ATOM     24  O   UNL     1      -1.910  57.913  41.063  1.00  0.00    -0.303 OA
ATOM     25  H   UNL     1      -1.115  57.746  40.512  1.00  0.00     0.223 HD
ENDBRANCH  22  24
BRANCH  22  26
ATOM     26  O   UNL     1      -4.396  58.242  40.682  1.00  0.00    -0.303 OA
ATOM     27  H   UNL     1      -4.579  57.696  41.477  1.00  0.00     0.223 HD
ENDBRANCH  22  26
ENDBRANCH  21  22
ENDBRANCH  20  21
ENDBRANCH   3  20
BRANCH   2  28
ATOM     28  O   UNL     1      -1.519  60.913  35.435  1.00  0.00    -0.387 OA
ATOM     29  H   UNL     1      -0.817  61.183  36.051  1.00  0.00     0.211 HD
ENDBRANCH   2  28
TORSDOF 14
REMARK SMILES O=c1[nH]cc(F)c(=O)[nH]1
REMARK SMILES IDX 6 1 8 2 1 3 9 4 3 5 7 6 2 7 5 8 4 9
REMARK H PARENT 9 10 3 11
REMARK Flexibility Score: inf
ROOT
ATOM      1  F   UNL     1      -2.963  55.745  35.025  1.00  0.00    -0.199 F 
ATOM      2  O   UNL     1      -3.785  55.581  32.435  1.00  0.00    -0.266 OA
ATOM      3  O   UNL     1      -7.252  58.531  33.288  1.00  0.00    -0.248 OA
ATOM      4  N   UNL     1      -5.531  57.056  32.837  1.00  0.00    -0.272 N 
ATOM      5  N   UNL     1      -5.815  57.943  34.991  1.00  0.00    -0.311 N 
ATOM      6  C   UNL     1      -4.416  56.305  33.197  1.00  0.00     0.289 A 
ATOM      7  C   UNL     1      -6.273  57.892  33.680  1.00  0.00     0.325 A 
ATOM      8  C   UNL     1      -4.034  56.448  34.616  1.00  0.00     0.204 A 
ATOM      9  C   UNL     1      -4.728  57.238  35.432  1.00  0.00     0.132 A 
ATOM     10  H   UNL     1      -5.835  56.992  31.869  1.00  0.00     0.175 HD
ATOM     11  H   UNL     1      -6.304  58.528  35.661  1.00  0.00     0.171 HD
ENDROOT
TORSDOF 0
ENDMDL
MODEL 18
REMARK VINA RESULT:    -8.916      2.135      3.733
REMARK INTER + INTRA:         -15.903
REMARK INTER:                 -14.918
REMARK INTRA:                  -0.985
REMARK UNBOUND:                -1.514
REMARK SMILES O=P(O)(O)OC[C@H]1O[C@H](O[P@@](=O)(O)OP(=O)(O)O)[C@H](O)[C@@H]1O
REMARK SMILES IDX 8 1 21 2 7 3 19 4 9 5 10 6 11 7 12 8 14 9 15 10 16 11 17 12
REMARK SMILES IDX 18 14 13 16 20 18 6 20 5 21 2 22 1 23 3 24 4 26 22 28
REMARK H PARENT 17 13 18 15 13 17 20 19 3 25 4 27 22 29
REMARK Flexibility Score: inf
ROOT
ATOM      1  O   UNL     1      -4.903  59.948  38.961  1.00  0.00    -0.341 OA
ATOM      2  C   UNL     1      -3.007  59.289  40.216  1.00  0.00     0.179 C 
ATOM      3  C   UNL     1      -4.506  59.079  40.040  1.00  0.00     0.179 C 
ATOM      4  C   UNL     1      -2.574  59.567  38.794  1.00  0.00     0.202 C 
ATOM      5  C   UNL     1      -3.714  60.464  38.332  1.00  0.00     0.293 C 
ENDROOT
BRANCH   5   6
ATOM      6  O   UNL     1      -3.806  60.485  36.918  1.00  0.00    -0.253 OA
BRANCH   6   7
ATOM      7  P   UNL     1      -3.110  61.681  36.079  1.00  0.00     0.483 P 
ATOM      8  O   UNL     1      -2.875  62.943  36.858  1.00  0.00    -0.228 OA
BRANCH   7   9
ATOM      9  O   UNL     1      -4.055  61.870  34.781  1.00  0.00    -0.185 OA
BRANCH   9  10
ATOM     10  P   UNL     1      -3.739  62.477  33.318  1.00  0.00     0.478 P 
ATOM     11  O   UNL     1      -4.642  63.598  32.896  1.00  0.00    -0.228 OA
BRANCH  10  12
ATOM     12  O   UNL     1      -3.768  61.172  32.365  1.00  0.00    -0.302 OA
ATOM     13  H   UNL     1      -3.366  61.227  31.472  1.00  0.00     0.223 HD
ENDBRANCH  10  12
BRANCH  10  14
ATOM     14  O   UNL     1      -2.168  62.848  33.400  1.00  0.00    -0.302 OA
ATOM     15  H   UNL     1      -1.679  62.665  34.231  1.00  0.00     0.223 HD
ENDBRANCH  10  14
ENDBRANCH   9  10
ENDBRANCH   7   9
BRANCH   7  16
ATOM     16  O   UNL     1      -1.768  61.015  35.467  1.00  0.00    -0.302 OA
ATOM     17  H   UNL     1      -1.275  60.361  36.007  1.00  0.00     0.223 HD
ENDBRANCH   7  16
ENDBRANCH   6   7
ENDBRANCH   5   6
BRANCH   4  18
ATOM     18  O   UNL     1      -2.567  58.352  38.048  1.00  0.00    -0.385 OA
ATOM     19  H   UNL     1      -2.666  57.605  38.662  1.00  0.00     0.211 HD
ENDBRANCH   4  18
BRANCH   3  20
ATOM     20  C   UNL     1      -5.309  59.411  41.285  1.00  0.00     0.208 C 
BRANCH  20  21
ATOM     21  O   UNL     1      -5.935  60.670  41.103  1.00  0.00    -0.284 OA
BRANCH  21  22
ATOM     22  P   UNL     1      -5.575  61.866  42.133  1.00  0.00     0.469 P 
ATOM     23  O   UNL     1      -5.878  61.575  43.574  1.00  0.00    -0.228 OA
BRANCH  22  24
ATOM     24  O   UNL     1      -6.336  63.149  41.513  1.00  0.00    -0.303 OA
ATOM     25  H   UNL     1      -6.996  63.623  42.064  1.00  0.00     0.223 HD
ENDBRANCH  22  24
BRANCH  22  26
ATOM     26  O   UNL     1      -4.019  62.163  41.810  1.00  0.00    -0.303 OA
ATOM     27  H   UNL     1      -3.793  62.723  41.037  1.00  0.00     0.223 HD
ENDBRANCH  22  26
ENDBRANCH  21  22
ENDBRANCH  20  21
ENDBRANCH   3  20
BRANCH   2  28
ATOM     28  O   UNL     1      -2.379  58.160  40.784  1.00  0.00    -0.387 OA
ATOM     29  H   UNL     1      -1.450  58.163  40.497  1.00  0.00     0.211 HD
ENDBRANCH   2  28
TORSDOF 14
REMARK SMILES O=c1[nH]cc(F)c(=O)[nH]1
REMARK SMILES IDX 6 1 8 2 1 3 9 4 3 5 7 6 2 7 5 8 4 9
REMARK H PARENT 9 10 3 11
REMARK Flexibility Score: inf
ROOT
ATOM      1  F   UNL     1      -3.573  56.358  35.269  1.00  0.00    -0.199 F 
ATOM      2  O   UNL     1      -3.715  58.301  33.368  1.00  0.00    -0.266 OA
ATOM      3  O   UNL     1      -7.287  60.268  35.563  1.00  0.00    -0.248 OA
ATOM      4  N   UNL     1      -5.507  59.305  34.448  1.00  0.00    -0.272 N 
ATOM      5  N   UNL     1      -6.326  58.364  36.436  1.00  0.00    -0.311 N 
ATOM      6  C   UNL     1      -4.519  58.338  34.294  1.00  0.00     0.289 A 
ATOM      7  C   UNL     1      -6.438  59.377  35.491  1.00  0.00     0.325 A 
ATOM      8  C   UNL     1      -4.507  57.321  35.363  1.00  0.00     0.204 A 
ATOM      9  C   UNL     1      -5.385  57.373  36.362  1.00  0.00     0.132 A 
ATOM     10  H   UNL     1      -5.557  60.029  33.736  1.00  0.00     0.175 HD
ATOM     11  H   UNL     1      -6.969  58.350  37.222  1.00  0.00     0.171 HD
ENDROOT
TORSDOF 0
ENDMDL
MODEL 19
REMARK VINA RESULT:    -8.899      2.476      4.097
REMARK INTER + INTRA:         -15.875
REMARK INTER:                 -14.585
REMARK INTRA:                  -1.290
REMARK UNBOUND:                -1.514
REMARK SMILES O=P(O)(O)OC[C@H]1O[C@H](O[P@@](=O)(O)OP(=O)(O)O)[C@H](O)[C@@H]1O
REMARK SMILES IDX 8 1 21 2 7 3 19 4 9 5 10 6 11 7 12 8 14 9 15 10 16 11 17 12
REMARK SMILES IDX 18 14 13 16 20 18 6 20 5 21 2 22 1 23 3 24 4 26 22 28
REMARK H PARENT 17 13 18 15 13 17 20 19 3 25 4 27 22 29
REMARK Flexibility Score: inf
ROOT
ATOM      1  O   UNL     1      -4.416  60.693  37.958  1.00  0.00    -0.341 OA
ATOM      2  C   UNL     1      -3.286  59.556  39.699  1.00  0.00     0.179 C 
ATOM      3  C   UNL     1      -4.650  59.805  39.068  1.00  0.00     0.179 C 
ATOM      4  C   UNL     1      -2.381  59.611  38.488  1.00  0.00     0.202 C 
ATOM      5  C   UNL     1      -2.995  60.787  37.741  1.00  0.00     0.293 C 
ENDROOT
BRANCH   5   6
ATOM      6  O   UNL     1      -2.646  60.758  36.368  1.00  0.00    -0.253 OA
BRANCH   6   7
ATOM      7  P   UNL     1      -3.687  61.306  35.256  1.00  0.00     0.483 P 
ATOM      8  O   UNL     1      -4.516  60.245  34.592  1.00  0.00    -0.228 OA
BRANCH   7   9
ATOM      9  O   UNL     1      -2.774  62.168  34.237  1.00  0.00    -0.185 OA
BRANCH   9  10
ATOM     10  P   UNL     1      -3.181  63.131  33.005  1.00  0.00     0.478 P 
ATOM     11  O   UNL     1      -4.521  63.790  33.141  1.00  0.00    -0.228 OA
BRANCH  10  12
ATOM     12  O   UNL     1      -3.011  62.169  31.717  1.00  0.00    -0.302 OA
ATOM     13  H   UNL     1      -2.176  62.205  31.204  1.00  0.00     0.223 HD
ENDBRANCH  10  12
BRANCH  10  14
ATOM     14  O   UNL     1      -1.923  64.140  32.890  1.00  0.00    -0.302 OA
ATOM     15  H   UNL     1      -1.369  64.300  33.683  1.00  0.00     0.223 HD
ENDBRANCH  10  14
ENDBRANCH   9  10
ENDBRANCH   7   9
BRANCH   7  16
ATOM     16  O   UNL     1      -4.546  62.436  36.032  1.00  0.00    -0.302 OA
ATOM     17  H   UNL     1      -4.416  63.378  35.792  1.00  0.00     0.223 HD
ENDBRANCH   7  16
ENDBRANCH   6   7
ENDBRANCH   5   6
BRANCH   4  18
ATOM     18  O   UNL     1      -2.524  58.412  37.728  1.00  0.00    -0.385 OA
ATOM     19  H   UNL     1      -2.307  58.600  36.799  1.00  0.00     0.211 HD
ENDBRANCH   4  18
BRANCH   3  20
ATOM     20  C   UNL     1      -5.648  60.434  40.024  1.00  0.00     0.208 C 
BRANCH  20  21
ATOM     21  O   UNL     1      -6.694  61.024  39.271  1.00  0.00    -0.284 OA
BRANCH  21  22
ATOM     22  P   UNL     1      -6.914  62.624  39.378  1.00  0.00     0.469 P 
ATOM     23  O   UNL     1      -8.343  63.061  39.511  1.00  0.00    -0.228 OA
BRANCH  22  24
ATOM     24  O   UNL     1      -6.130  63.206  38.090  1.00  0.00    -0.303 OA
ATOM     25  H   UNL     1      -5.511  62.619  37.604  1.00  0.00     0.223 HD
ENDBRANCH  22  24
BRANCH  22  26
ATOM     26  O   UNL     1      -5.956  63.038  40.614  1.00  0.00    -0.303 OA
ATOM     27  H   UNL     1      -6.077  63.915  41.035  1.00  0.00     0.223 HD
ENDBRANCH  22  26
ENDBRANCH  21  22
ENDBRANCH  20  21
ENDBRANCH   3  20
BRANCH   2  28
ATOM     28  O   UNL     1      -3.237  58.322  40.381  1.00  0.00    -0.387 OA
ATOM     29  H   UNL     1      -2.417  58.305  40.903  1.00  0.00     0.211 HD
ENDBRANCH   2  28
TORSDOF 14
REMARK SMILES O=c1[nH]cc(F)c(=O)[nH]1
REMARK SMILES IDX 6 1 8 2 1 3 9 4 3 5 7 6 2 7 5 8 4 9
REMARK H PARENT 9 10 3 11
REMARK Flexibility Score: inf
ROOT
ATOM      1  F   UNL     1      -8.020  57.449  35.025  1.00  0.00    -0.199 F 
ATOM      2  O   UNL     1      -9.088  59.114  33.155  1.00  0.00    -0.266 OA
ATOM      3  O   UNL     1      -7.559  62.810  35.487  1.00  0.00    -0.248 OA
ATOM      4  N   UNL     1      -8.334  60.982  34.305  1.00  0.00    -0.272 N 
ATOM      5  N   UNL     1      -7.140  60.697  36.306  1.00  0.00    -0.311 N 
ATOM      6  C   UNL     1      -8.499  59.615  34.106  1.00  0.00     0.289 A 
ATOM      7  C   UNL     1      -7.668  61.587  35.377  1.00  0.00     0.325 A 
ATOM      8  C   UNL     1      -7.893  58.781  35.162  1.00  0.00     0.204 A 
ATOM      9  C   UNL     1      -7.256  59.338  36.190  1.00  0.00     0.132 A 
ATOM     10  H   UNL     1      -8.734  61.601  33.605  1.00  0.00     0.175 HD
ATOM     11  H   UNL     1      -6.643  61.063  37.112  1.00  0.00     0.171 HD
ENDROOT
TORSDOF 0
ENDMDL
MODEL 20
REMARK VINA RESULT:    -8.869      2.605      3.512
REMARK INTER + INTRA:         -15.828
REMARK INTER:                 -14.547
REMARK INTRA:                  -1.281
REMARK UNBOUND:                -1.514
REMARK SMILES O=P(O)(O)OC[C@H]1O[C@H](O[P@@](=O)(O)OP(=O)(O)O)[C@H](O)[C@@H]1O
REMARK SMILES IDX 8 1 21 2 7 3 19 4 9 5 10 6 11 7 12 8 14 9 15 10 16 11 17 12
REMARK SMILES IDX 18 14 13 16 20 18 6 20 5 21 2 22 1 23 3 24 4 26 22 28
REMARK H PARENT 17 13 18 15 13 17 20 19 3 25 4 27 22 29
REMARK Flexibility Score: inf
ROOT
ATOM      1  O   UNL     1      -5.851  61.004  38.556  1.00  0.00    -0.341 OA
ATOM      2  C   UNL     1      -6.560  62.528  40.222  1.00  0.00     0.179 C 
ATOM      3  C   UNL     1      -5.670  61.322  39.950  1.00  0.00     0.179 C 
ATOM      4  C   UNL     1      -6.496  63.254  38.896  1.00  0.00     0.202 C 
ATOM      5  C   UNL     1      -6.586  62.076  37.936  1.00  0.00     0.293 C 
ENDROOT
BRANCH   5   6
ATOM      6  O   UNL     1      -6.080  62.421  36.658  1.00  0.00    -0.253 OA
BRANCH   6   7
ATOM      7  P   UNL     1      -6.714  61.750  35.328  1.00  0.00     0.483 P 
ATOM      8  O   UNL     1      -8.196  61.517  35.386  1.00  0.00    -0.228 OA
BRANCH   7   9
ATOM      9  O   UNL     1      -5.841  60.408  35.096  1.00  0.00    -0.185 OA
BRANCH   9  10
ATOM     10  P   UNL     1      -5.610  59.510  33.773  1.00  0.00     0.478 P 
ATOM     11  O   UNL     1      -6.867  58.986  33.144  1.00  0.00    -0.228 OA
BRANCH  10  12
ATOM     12  O   UNL     1      -4.567  58.381  34.274  1.00  0.00    -0.302 OA
ATOM     13  H   UNL     1      -3.813  58.142  33.695  1.00  0.00     0.223 HD
ENDBRANCH  10  12
BRANCH  10  14
ATOM     14  O   UNL     1      -4.709  60.462  32.828  1.00  0.00    -0.302 OA
ATOM     15  H   UNL     1      -4.084  60.049  32.195  1.00  0.00     0.223 HD
ENDBRANCH  10  14
ENDBRANCH   9  10
ENDBRANCH   7   9
BRANCH   7  16
ATOM     16  O   UNL     1      -6.237  62.717  34.123  1.00  0.00    -0.302 OA
ATOM     17  H   UNL     1      -6.594  63.629  34.077  1.00  0.00     0.223 HD
ENDBRANCH   7  16
ENDBRANCH   6   7
ENDBRANCH   5   6
BRANCH   4  18
ATOM     18  O   UNL     1      -5.233  63.903  38.767  1.00  0.00    -0.385 OA
ATOM     19  H   UNL     1      -4.854  63.685  37.899  1.00  0.00     0.211 HD
ENDBRANCH   4  18
BRANCH   3  20
ATOM     20  C   UNL     1      -6.020  60.114  40.800  1.00  0.00     0.208 C 
BRANCH  20  21
ATOM     21  O   UNL     1      -5.897  60.465  42.168  1.00  0.00    -0.284 OA
BRANCH  21  22
ATOM     22  P   UNL     1      -4.440  60.356  42.864  1.00  0.00     0.469 P 
ATOM     23  O   UNL     1      -3.459  59.476  42.147  1.00  0.00    -0.228 OA
BRANCH  22  24
ATOM     24  O   UNL     1      -4.773  59.924  44.386  1.00  0.00    -0.303 OA
ATOM     25  H   UNL     1      -4.135  59.357  44.869  1.00  0.00     0.223 HD
ENDBRANCH  22  24
BRANCH  22  26
ATOM     26  O   UNL     1      -3.992  61.904  43.006  1.00  0.00    -0.303 OA
ATOM     27  H   UNL     1      -3.627  62.216  43.861  1.00  0.00     0.223 HD
ENDBRANCH  22  26
ENDBRANCH  21  22
ENDBRANCH  20  21
ENDBRANCH   3  20
BRANCH   2  28
ATOM     28  O   UNL     1      -6.090  63.297  41.307  1.00  0.00    -0.387 OA
ATOM     29  H   UNL     1      -6.598  63.040  42.095  1.00  0.00     0.211 HD
ENDBRANCH   2  28
TORSDOF 14
REMARK SMILES O=c1[nH]cc(F)c(=O)[nH]1
REMARK SMILES IDX 6 1 8 2 1 3 9 4 3 5 7 6 2 7 5 8 4 9
REMARK H PARENT 9 10 3 11
REMARK Flexibility Score: inf
ROOT
ATOM      1  F   UNL     1      -1.926  59.824  38.512  1.00  0.00    -0.199 F 
ATOM      2  O   UNL     1      -2.646  62.433  38.805  1.00  0.00    -0.266 OA
ATOM      3  O   UNL     1      -3.277  62.833  34.235  1.00  0.00    -0.248 OA
ATOM      4  N   UNL     1      -2.968  62.660  36.519  1.00  0.00    -0.272 N 
ATOM      5  N   UNL     1      -2.594  60.816  35.115  1.00  0.00    -0.311 N 
ATOM      6  C   UNL     1      -2.636  61.960  37.674  1.00  0.00     0.289 A 
ATOM      7  C   UNL     1      -2.968  62.152  35.214  1.00  0.00     0.325 A 
ATOM      8  C   UNL     1      -2.257  60.554  37.432  1.00  0.00     0.204 A 
ATOM      9  C   UNL     1      -2.251  60.053  36.198  1.00  0.00     0.132 A 
ATOM     10  H   UNL     1      -3.236  63.634  36.632  1.00  0.00     0.175 HD
ATOM     11  H   UNL     1      -2.570  60.378  34.200  1.00  0.00     0.171 HD
ENDROOT
TORSDOF 0
ENDMDL
