MODEL 1
REMARK VINA RESULT:    -7.139      0.000      0.000
REMARK INTER + INTRA:         -12.546
REMARK INTER:                 -11.521
REMARK INTRA:                  -1.025
REMARK UNBOUND:                -1.025
REMARK SMILES O=P(O)(O)OC[C@H]1O[C@H](O[P@@](=O)(O)OP(=O)(O)O)[C@H](O)[C@@H]1O
REMARK SMILES IDX 8 1 21 2 7 3 19 4 9 5 10 6 11 7 12 8 14 9 15 10 16 11 17 12
REMARK SMILES IDX 18 14 13 16 20 18 6 20 5 21 2 22 1 23 3 24 4 26 22 28
REMARK H PARENT 17 13 18 15 13 17 20 19 3 25 4 27 22 29
REMARK Flexibility Score: inf
ROOT
ATOM      1  O   UNL     1      -3.468  59.353  35.006  1.00  0.00    -0.341 OA
ATOM      2  C   UNL     1      -5.253  57.928  34.385  1.00  0.00     0.179 C 
ATOM      3  C   UNL     1      -4.336  59.043  33.899  1.00  0.00     0.179 C 
ATOM      4  C   UNL     1      -4.337  57.177  35.327  1.00  0.00     0.202 C 
ATOM      5  C   UNL     1      -3.640  58.342  36.017  1.00  0.00     0.293 C 
ENDROOT
BRANCH   5   6
ATOM      6  O   UNL     1      -2.415  57.931  36.597  1.00  0.00    -0.253 OA
BRANCH   6   7
ATOM      7  P   UNL     1      -1.636  58.912  37.623  1.00  0.00     0.483 P 
ATOM      8  O   UNL     1      -0.314  58.393  38.109  1.00  0.00    -0.228 OA
BRANCH   7   9
ATOM      9  O   UNL     1      -2.707  59.203  38.799  1.00  0.00    -0.185 OA
BRANCH   9  10
ATOM     10  P   UNL     1      -2.602  59.010  40.399  1.00  0.00     0.478 P 
ATOM     11  O   UNL     1      -2.474  60.287  41.177  1.00  0.00    -0.228 OA
BRANCH  10  12
ATOM     12  O   UNL     1      -1.372  57.975  40.564  1.00  0.00    -0.302 OA
ATOM     13  H   UNL     1      -1.435  57.266  41.240  1.00  0.00     0.223 HD
ENDBRANCH  10  12
BRANCH  10  14
ATOM     14  O   UNL     1      -3.899  58.113  40.753  1.00  0.00    -0.302 OA
ATOM     15  H   UNL     1      -4.005  57.770  41.666  1.00  0.00     0.223 HD
ENDBRANCH  10  14
ENDBRANCH   9  10
ENDBRANCH   7   9
BRANCH   7  16
ATOM     16  O   UNL     1      -1.551  60.326  36.841  1.00  0.00    -0.302 OA
ATOM     17  H   UNL     1      -2.137  61.060  37.123  1.00  0.00     0.223 HD
ENDBRANCH   7  16
ENDBRANCH   6   7
ENDBRANCH   5   6
BRANCH   4  18
ATOM     18  O   UNL     1      -3.397  56.413  34.574  1.00  0.00    -0.385 OA
ATOM     19  H   UNL     1      -3.751  55.518  34.443  1.00  0.00     0.211 HD
ENDBRANCH   4  18
BRANCH   3  20
ATOM     20  C   UNL     1      -5.086  60.292  33.472  1.00  0.00     0.208 C 
BRANCH  20  21
ATOM     21  O   UNL     1      -4.411  61.429  33.984  1.00  0.00    -0.284 OA
BRANCH  21  22
ATOM     22  P   UNL     1      -3.794  62.497  32.935  1.00  0.00     0.469 P 
ATOM     23  O   UNL     1      -4.624  63.729  32.723  1.00  0.00    -0.228 OA
BRANCH  22  24
ATOM     24  O   UNL     1      -3.512  61.616  31.610  1.00  0.00    -0.303 OA
ATOM     25  H   UNL     1      -2.956  61.995  30.896  1.00  0.00     0.223 HD
ENDBRANCH  22  24
BRANCH  22  26
ATOM     26  O   UNL     1      -2.312  62.766  33.525  1.00  0.00    -0.303 OA
ATOM     27  H   UNL     1      -2.163  62.680  34.491  1.00  0.00     0.223 HD
ENDBRANCH  22  26
ENDBRANCH  21  22
ENDBRANCH  20  21
ENDBRANCH   3  20
BRANCH   2  28
ATOM     28  O   UNL     1      -5.734  57.137  33.320  1.00  0.00    -0.387 OA
ATOM     29  H   UNL     1      -5.489  56.214  33.503  1.00  0.00     0.211 HD
ENDBRANCH   2  28
TORSDOF 14
ENDMDL
MODEL 2
REMARK VINA RESULT:    -7.090      1.456      2.125
REMARK INTER + INTRA:         -12.466
REMARK INTER:                 -10.186
REMARK INTRA:                  -2.280
REMARK UNBOUND:                -1.025
REMARK SMILES O=P(O)(O)OC[C@H]1O[C@H](O[P@@](=O)(O)OP(=O)(O)O)[C@H](O)[C@@H]1O
REMARK SMILES IDX 8 1 21 2 7 3 19 4 9 5 10 6 11 7 12 8 14 9 15 10 16 11 17 12
REMARK SMILES IDX 18 14 13 16 20 18 6 20 5 21 2 22 1 23 3 24 4 26 22 28
REMARK H PARENT 17 13 18 15 13 17 20 19 3 25 4 27 22 29
REMARK Flexibility Score: inf
ROOT
ATOM      1  O   UNL     1      -3.667  59.344  34.834  1.00  0.00    -0.341 OA
ATOM      2  C   UNL     1      -5.326  57.771  34.220  1.00  0.00     0.179 C 
ATOM      3  C   UNL     1      -4.442  58.899  33.703  1.00  0.00     0.179 C 
ATOM      4  C   UNL     1      -4.435  57.150  35.273  1.00  0.00     0.202 C 
ATOM      5  C   UNL     1      -3.850  58.404  35.909  1.00  0.00     0.293 C 
ENDROOT
BRANCH   5   6
ATOM      6  O   UNL     1      -2.645  58.113  36.595  1.00  0.00    -0.253 OA
BRANCH   6   7
ATOM      7  P   UNL     1      -1.744  59.316  37.196  1.00  0.00     0.483 P 
ATOM      8  O   UNL     1      -0.516  58.873  37.938  1.00  0.00    -0.228 OA
BRANCH   7   9
ATOM      9  O   UNL     1      -2.775  60.191  38.083  1.00  0.00    -0.185 OA
BRANCH   9  10
ATOM     10  P   UNL     1      -3.212  61.742  37.978  1.00  0.00     0.478 P 
ATOM     11  O   UNL     1      -3.908  62.281  39.193  1.00  0.00    -0.228 OA
BRANCH  10  12
ATOM     12  O   UNL     1      -4.074  61.789  36.612  1.00  0.00    -0.302 OA
ATOM     13  H   UNL     1      -4.551  60.981  36.324  1.00  0.00     0.223 HD
ENDBRANCH  10  12
BRANCH  10  14
ATOM     14  O   UNL     1      -1.836  62.491  37.581  1.00  0.00    -0.302 OA
ATOM     15  H   UNL     1      -1.575  62.537  36.637  1.00  0.00     0.223 HD
ENDBRANCH  10  14
ENDBRANCH   9  10
ENDBRANCH   7   9
BRANCH   7  16
ATOM     16  O   UNL     1      -1.447  60.270  35.924  1.00  0.00    -0.302 OA
ATOM     17  H   UNL     1      -1.798  60.012  35.045  1.00  0.00     0.223 HD
ENDBRANCH   7  16
ENDBRANCH   6   7
ENDBRANCH   5   6
BRANCH   4  18
ATOM     18  O   UNL     1      -3.407  56.389  34.643  1.00  0.00    -0.385 OA
ATOM     19  H   UNL     1      -2.794  56.063  35.323  1.00  0.00     0.211 HD
ENDBRANCH   4  18
BRANCH   3  20
ATOM     20  C   UNL     1      -5.229  60.065  33.133  1.00  0.00     0.208 C 
BRANCH  20  21
ATOM     21  O   UNL     1      -4.903  61.238  33.861  1.00  0.00    -0.284 OA
BRANCH  21  22
ATOM     22  P   UNL     1      -3.979  62.357  33.146  1.00  0.00     0.469 P 
ATOM     23  O   UNL     1      -4.591  63.725  33.062  1.00  0.00    -0.228 OA
BRANCH  22  24
ATOM     24  O   UNL     1      -3.589  61.686  31.729  1.00  0.00    -0.303 OA
ATOM     25  H   UNL     1      -2.812  61.088  31.684  1.00  0.00     0.223 HD
ENDBRANCH  22  24
BRANCH  22  26
ATOM     26  O   UNL     1      -2.601  62.278  33.988  1.00  0.00    -0.303 OA
ATOM     27  H   UNL     1      -2.460  62.904  34.730  1.00  0.00     0.223 HD
ENDBRANCH  22  26
ENDBRANCH  21  22
ENDBRANCH  20  21
ENDBRANCH   3  20
BRANCH   2  28
ATOM     28  O   UNL     1      -5.692  56.875  33.194  1.00  0.00    -0.387 OA
ATOM     29  H   UNL     1      -4.876  56.562  32.769  1.00  0.00     0.211 HD
ENDBRANCH   2  28
TORSDOF 14
ENDMDL
MODEL 3
REMARK VINA RESULT:    -7.002      2.790      4.216
REMARK INTER + INTRA:         -12.325
REMARK INTER:                 -10.962
REMARK INTRA:                  -1.363
REMARK UNBOUND:                -1.025
REMARK SMILES O=P(O)(O)OC[C@H]1O[C@H](O[P@@](=O)(O)OP(=O)(O)O)[C@H](O)[C@@H]1O
REMARK SMILES IDX 8 1 21 2 7 3 19 4 9 5 10 6 11 7 12 8 14 9 15 10 16 11 17 12
REMARK SMILES IDX 18 14 13 16 20 18 6 20 5 21 2 22 1 23 3 24 4 26 22 28
REMARK H PARENT 17 13 18 15 13 17 20 19 3 25 4 27 22 29
REMARK Flexibility Score: inf
ROOT
ATOM      1  O   UNL     1      -4.571  62.491  37.183  1.00  0.00    -0.341 OA
ATOM      2  C   UNL     1      -2.918  61.019  36.343  1.00  0.00     0.179 C 
ATOM      3  C   UNL     1      -3.880  62.140  35.968  1.00  0.00     0.179 C 
ATOM      4  C   UNL     1      -2.555  61.398  37.762  1.00  0.00     0.202 C 
ATOM      5  C   UNL     1      -3.916  61.835  38.285  1.00  0.00     0.293 C 
ENDROOT
BRANCH   5   6
ATOM      6  O   UNL     1      -3.782  62.672  39.420  1.00  0.00    -0.253 OA
BRANCH   6   7
ATOM      7  P   UNL     1      -4.788  62.500  40.677  1.00  0.00     0.483 P 
ATOM      8  O   UNL     1      -4.488  63.390  41.849  1.00  0.00    -0.228 OA
BRANCH   7   9
ATOM      9  O   UNL     1      -4.746  60.920  41.017  1.00  0.00    -0.185 OA
BRANCH   9  10
ATOM     10  P   UNL     1      -3.607  60.017  41.721  1.00  0.00     0.478 P 
ATOM     11  O   UNL     1      -3.429  58.653  41.123  1.00  0.00    -0.228 OA
BRANCH  10  12
ATOM     12  O   UNL     1      -4.035  60.036  43.280  1.00  0.00    -0.302 OA
ATOM     13  H   UNL     1      -3.339  59.941  43.965  1.00  0.00     0.223 HD
ENDBRANCH  10  12
BRANCH  10  14
ATOM     14  O   UNL     1      -2.299  60.966  41.679  1.00  0.00    -0.302 OA
ATOM     15  H   UNL     1      -1.652  60.850  40.951  1.00  0.00     0.223 HD
ENDBRANCH  10  14
ENDBRANCH   9  10
ENDBRANCH   7   9
BRANCH   7  16
ATOM     16  O   UNL     1      -6.262  62.704  40.043  1.00  0.00    -0.302 OA
ATOM     17  H   UNL     1      -6.619  62.017  39.441  1.00  0.00     0.223 HD
ENDBRANCH   7  16
ENDBRANCH   6   7
ENDBRANCH   5   6
BRANCH   4  18
ATOM     18  O   UNL     1      -1.653  62.502  37.746  1.00  0.00    -0.385 OA
ATOM     19  H   UNL     1      -2.156  63.323  37.882  1.00  0.00     0.211 HD
ENDBRANCH   4  18
BRANCH   3  20
ATOM     20  C   UNL     1      -4.886  61.736  34.905  1.00  0.00     0.208 C 
BRANCH  20  21
ATOM     21  O   UNL     1      -4.189  61.411  33.714  1.00  0.00    -0.284 OA
BRANCH  21  22
ATOM     22  P   UNL     1      -3.679  62.619  32.766  1.00  0.00     0.469 P 
ATOM     23  O   UNL     1      -4.612  63.791  32.674  1.00  0.00    -0.228 OA
BRANCH  22  24
ATOM     24  O   UNL     1      -3.343  61.891  31.363  1.00  0.00    -0.303 OA
ATOM     25  H   UNL     1      -3.426  60.915  31.302  1.00  0.00     0.223 HD
ENDBRANCH  22  24
BRANCH  22  26
ATOM     26  O   UNL     1      -2.216  62.957  33.369  1.00  0.00    -0.303 OA
ATOM     27  H   UNL     1      -1.702  63.697  32.981  1.00  0.00     0.223 HD
ENDBRANCH  22  26
ENDBRANCH  21  22
ENDBRANCH  20  21
ENDBRANCH   3  20
BRANCH   2  28
ATOM     28  O   UNL     1      -1.808  60.962  35.475  1.00  0.00    -0.387 OA
ATOM     29  H   UNL     1      -2.112  61.219  34.588  1.00  0.00     0.211 HD
ENDBRANCH   2  28
TORSDOF 14
ENDMDL
MODEL 4
REMARK VINA RESULT:    -6.934      3.262      7.728
REMARK INTER + INTRA:         -12.215
REMARK INTER:                 -11.100
REMARK INTRA:                  -1.115
REMARK UNBOUND:                -1.025
REMARK SMILES O=P(O)(O)OC[C@H]1O[C@H](O[P@@](=O)(O)OP(=O)(O)O)[C@H](O)[C@@H]1O
REMARK SMILES IDX 8 1 21 2 7 3 19 4 9 5 10 6 11 7 12 8 14 9 15 10 16 11 17 12
REMARK SMILES IDX 18 14 13 16 20 18 6 20 5 21 2 22 1 23 3 24 4 26 22 28
REMARK H PARENT 17 13 18 15 13 17 20 19 3 25 4 27 22 29
REMARK Flexibility Score: inf
ROOT
ATOM      1  O   UNL     1      -3.086  61.959  38.553  1.00  0.00    -0.341 OA
ATOM      2  C   UNL     1      -4.707  62.533  40.180  1.00  0.00     0.179 C 
ATOM      3  C   UNL     1      -3.215  62.347  39.935  1.00  0.00     0.179 C 
ATOM      4  C   UNL     1      -5.171  63.041  38.832  1.00  0.00     0.202 C 
ATOM      5  C   UNL     1      -4.361  62.142  37.909  1.00  0.00     0.293 C 
ENDROOT
BRANCH   5   6
ATOM      6  O   UNL     1      -4.246  62.711  36.616  1.00  0.00    -0.253 OA
BRANCH   6   7
ATOM      7  P   UNL     1      -4.445  61.786  35.303  1.00  0.00     0.483 P 
ATOM      8  O   UNL     1      -4.429  60.308  35.566  1.00  0.00    -0.228 OA
BRANCH   7   9
ATOM      9  O   UNL     1      -3.301  62.288  34.276  1.00  0.00    -0.185 OA
BRANCH   9  10
ATOM     10  P   UNL     1      -3.404  63.147  32.912  1.00  0.00     0.478 P 
ATOM     11  O   UNL     1      -4.708  63.863  32.719  1.00  0.00    -0.228 OA
BRANCH  10  12
ATOM     12  O   UNL     1      -3.035  62.065  31.769  1.00  0.00    -0.302 OA
ATOM     13  H   UNL     1      -3.678  61.900  31.046  1.00  0.00     0.223 HD
ENDBRANCH  10  12
BRANCH  10  14
ATOM     14  O   UNL     1      -2.097  64.096  32.969  1.00  0.00    -0.302 OA
ATOM     15  H   UNL     1      -2.213  65.068  32.911  1.00  0.00     0.223 HD
ENDBRANCH  10  14
ENDBRANCH   9  10
ENDBRANCH   7   9
BRANCH   7  16
ATOM     16  O   UNL     1      -5.812  62.330  34.631  1.00  0.00    -0.302 OA
ATOM     17  H   UNL     1      -6.439  62.845  35.182  1.00  0.00     0.223 HD
ENDBRANCH   7  16
ENDBRANCH   6   7
ENDBRANCH   5   6
BRANCH   4  18
ATOM     18  O   UNL     1      -4.776  64.402  38.671  1.00  0.00    -0.385 OA
ATOM     19  H   UNL     1      -4.939  64.878  39.503  1.00  0.00     0.211 HD
ENDBRANCH   4  18
BRANCH   3  20
ATOM     20  C   UNL     1      -2.589  61.287  40.824  1.00  0.00     0.208 C 
BRANCH  20  21
ATOM     21  O   UNL     1      -3.599  60.380  41.235  1.00  0.00    -0.284 OA
BRANCH  21  22
ATOM     22  P   UNL     1      -3.500  58.842  40.741  1.00  0.00     0.469 P 
ATOM     23  O   UNL     1      -4.735  58.021  40.973  1.00  0.00    -0.228 OA
BRANCH  22  24
ATOM     24  O   UNL     1      -2.160  58.293  41.459  1.00  0.00    -0.303 OA
ATOM     25  H   UNL     1      -1.941  57.339  41.390  1.00  0.00     0.223 HD
ENDBRANCH  22  24
BRANCH  22  26
ATOM     26  O   UNL     1      -3.060  58.989  39.192  1.00  0.00    -0.303 OA
ATOM     27  H   UNL     1      -3.723  59.294  38.537  1.00  0.00     0.223 HD
ENDBRANCH  22  26
ENDBRANCH  21  22
ENDBRANCH  20  21
ENDBRANCH   3  20
BRANCH   2  28
ATOM     28  O   UNL     1      -4.961  63.433  41.237  1.00  0.00    -0.387 OA
ATOM     29  H   UNL     1      -5.824  63.201  41.622  1.00  0.00     0.211 HD
ENDBRANCH   2  28
TORSDOF 14
ENDMDL
MODEL 5
REMARK VINA RESULT:    -6.796      2.729      7.394
REMARK INTER + INTRA:         -11.992
REMARK INTER:                 -11.149
REMARK INTRA:                  -0.843
REMARK UNBOUND:                -1.025
REMARK SMILES O=P(O)(O)OC[C@H]1O[C@H](O[P@@](=O)(O)OP(=O)(O)O)[C@H](O)[C@@H]1O
REMARK SMILES IDX 8 1 21 2 7 3 19 4 9 5 10 6 11 7 12 8 14 9 15 10 16 11 17 12
REMARK SMILES IDX 18 14 13 16 20 18 6 20 5 21 2 22 1 23 3 24 4 26 22 28
REMARK H PARENT 17 13 18 15 13 17 20 19 3 25 4 27 22 29
REMARK Flexibility Score: inf
ROOT
ATOM      1  O   UNL     1      -3.277  60.352  38.646  1.00  0.00    -0.341 OA
ATOM      2  C   UNL     1      -1.429  58.896  38.903  1.00  0.00     0.179 C 
ATOM      3  C   UNL     1      -2.739  59.352  39.532  1.00  0.00     0.179 C 
ATOM      4  C   UNL     1      -1.744  59.024  37.429  1.00  0.00     0.202 C 
ATOM      5  C   UNL     1      -2.510  60.340  37.427  1.00  0.00     0.293 C 
ENDROOT
BRANCH   5   6
ATOM      6  O   UNL     1      -3.317  60.459  36.269  1.00  0.00    -0.253 OA
BRANCH   6   7
ATOM      7  P   UNL     1      -3.792  61.919  35.758  1.00  0.00     0.483 P 
ATOM      8  O   UNL     1      -5.181  62.311  36.173  1.00  0.00    -0.228 OA
BRANCH   7   9
ATOM      9  O   UNL     1      -3.563  61.884  34.158  1.00  0.00    -0.185 OA
BRANCH   9  10
ATOM     10  P   UNL     1      -3.559  63.070  33.061  1.00  0.00     0.478 P 
ATOM     11  O   UNL     1      -4.870  63.781  32.901  1.00  0.00    -0.228 OA
BRANCH  10  12
ATOM     12  O   UNL     1      -3.005  62.337  31.731  1.00  0.00    -0.302 OA
ATOM     13  H   UNL     1      -2.301  61.658  31.821  1.00  0.00     0.223 HD
ENDBRANCH  10  12
BRANCH  10  14
ATOM     14  O   UNL     1      -2.320  64.000  33.523  1.00  0.00    -0.302 OA
ATOM     15  H   UNL     1      -1.514  64.029  32.964  1.00  0.00     0.223 HD
ENDBRANCH  10  14
ENDBRANCH   9  10
ENDBRANCH   7   9
BRANCH   7  16
ATOM     16  O   UNL     1      -2.633  62.923  36.276  1.00  0.00    -0.302 OA
ATOM     17  H   UNL     1      -2.679  63.870  36.025  1.00  0.00     0.223 HD
ENDBRANCH   7  16
ENDBRANCH   6   7
ENDBRANCH   5   6
BRANCH   4  18
ATOM     18  O   UNL     1      -2.597  57.954  37.026  1.00  0.00    -0.385 OA
ATOM     19  H   UNL     1      -2.102  57.120  37.078  1.00  0.00     0.211 HD
ENDBRANCH   4  18
BRANCH   3  20
ATOM     20  C   UNL     1      -2.564  59.941  40.921  1.00  0.00     0.208 C 
BRANCH  20  21
ATOM     21  O   UNL     1      -3.316  59.169  41.843  1.00  0.00    -0.284 OA
BRANCH  21  22
ATOM     22  P   UNL     1      -4.728  59.759  42.370  1.00  0.00     0.469 P 
ATOM     23  O   UNL     1      -5.282  60.896  41.562  1.00  0.00    -0.228 OA
BRANCH  22  24
ATOM     24  O   UNL     1      -4.449  60.089  43.928  1.00  0.00    -0.303 OA
ATOM     25  H   UNL     1      -4.427  61.026  44.218  1.00  0.00     0.223 HD
ENDBRANCH  22  24
BRANCH  22  26
ATOM     26  O   UNL     1      -5.667  58.444  42.431  1.00  0.00    -0.303 OA
ATOM     27  H   UNL     1      -6.376  58.397  43.107  1.00  0.00     0.223 HD
ENDBRANCH  22  26
ENDBRANCH  21  22
ENDBRANCH  20  21
ENDBRANCH   3  20
BRANCH   2  28
ATOM     28  O   UNL     1      -1.084  57.584  39.291  1.00  0.00    -0.387 OA
ATOM     29  H   UNL     1      -1.833  57.217  39.791  1.00  0.00     0.211 HD
ENDBRANCH   2  28
TORSDOF 14
ENDMDL
MODEL 6
REMARK VINA RESULT:    -6.761      3.203      7.659
REMARK INTER + INTRA:         -11.935
REMARK INTER:                 -10.738
REMARK INTRA:                  -1.198
REMARK UNBOUND:                -1.025
REMARK SMILES O=P(O)(O)OC[C@H]1O[C@H](O[P@@](=O)(O)OP(=O)(O)O)[C@H](O)[C@@H]1O
REMARK SMILES IDX 8 1 21 2 7 3 19 4 9 5 10 6 11 7 12 8 14 9 15 10 16 11 17 12
REMARK SMILES IDX 18 14 13 16 20 18 6 20 5 21 2 22 1 23 3 24 4 26 22 28
REMARK H PARENT 17 13 18 15 13 17 20 19 3 25 4 27 22 29
REMARK Flexibility Score: inf
ROOT
ATOM      1  O   UNL     1      -3.513  61.857  38.294  1.00  0.00    -0.341 OA
ATOM      2  C   UNL     1      -4.908  62.402  40.128  1.00  0.00     0.179 C 
ATOM      3  C   UNL     1      -3.460  62.306  39.663  1.00  0.00     0.179 C 
ATOM      4  C   UNL     1      -5.608  62.806  38.849  1.00  0.00     0.202 C 
ATOM      5  C   UNL     1      -4.881  61.919  37.848  1.00  0.00     0.293 C 
ENDROOT
BRANCH   5   6
ATOM      6  O   UNL     1      -5.006  62.427  36.531  1.00  0.00    -0.253 OA
BRANCH   6   7
ATOM      7  P   UNL     1      -4.606  61.502  35.265  1.00  0.00     0.483 P 
ATOM      8  O   UNL     1      -4.017  60.167  35.621  1.00  0.00    -0.228 OA
BRANCH   7   9
ATOM      9  O   UNL     1      -3.634  62.436  34.372  1.00  0.00    -0.185 OA
BRANCH   9  10
ATOM     10  P   UNL     1      -3.813  63.030  32.880  1.00  0.00     0.478 P 
ATOM     11  O   UNL     1      -3.733  62.007  31.785  1.00  0.00    -0.228 OA
BRANCH  10  12
ATOM     12  O   UNL     1      -2.698  64.198  32.815  1.00  0.00    -0.302 OA
ATOM     13  H   UNL     1      -2.743  64.857  32.089  1.00  0.00     0.223 HD
ENDBRANCH  10  12
BRANCH  10  14
ATOM     14  O   UNL     1      -5.207  63.843  32.966  1.00  0.00    -0.302 OA
ATOM     15  H   UNL     1      -5.725  63.811  33.798  1.00  0.00     0.223 HD
ENDBRANCH  10  14
ENDBRANCH   9  10
ENDBRANCH   7   9
BRANCH   7  16
ATOM     16  O   UNL     1      -5.958  61.421  34.382  1.00  0.00    -0.302 OA
ATOM     17  H   UNL     1      -6.424  62.253  34.150  1.00  0.00     0.223 HD
ENDBRANCH   7  16
ENDBRANCH   6   7
ENDBRANCH   5   6
BRANCH   4  18
ATOM     18  O   UNL     1      -5.346  64.181  38.574  1.00  0.00    -0.385 OA
ATOM     19  H   UNL     1      -4.647  64.240  37.900  1.00  0.00     0.211 HD
ENDBRANCH   4  18
BRANCH   3  20
ATOM     20  C   UNL     1      -2.628  61.340  40.486  1.00  0.00     0.208 C 
BRANCH  20  21
ATOM     21  O   UNL     1      -3.497  60.438  41.150  1.00  0.00    -0.284 OA
BRANCH  21  22
ATOM     22  P   UNL     1      -3.459  58.876  40.726  1.00  0.00     0.469 P 
ATOM     23  O   UNL     1      -4.715  58.108  41.019  1.00  0.00    -0.228 OA
BRANCH  22  24
ATOM     24  O   UNL     1      -2.123  58.316  41.443  1.00  0.00    -0.303 OA
ATOM     25  H   UNL     1      -1.263  58.401  40.978  1.00  0.00     0.223 HD
ENDBRANCH  22  24
BRANCH  22  26
ATOM     26  O   UNL     1      -3.046  58.937  39.164  1.00  0.00    -0.303 OA
ATOM     27  H   UNL     1      -2.337  59.554  38.884  1.00  0.00     0.223 HD
ENDBRANCH  22  26
ENDBRANCH  21  22
ENDBRANCH  20  21
ENDBRANCH   3  20
BRANCH   2  28
ATOM     28  O   UNL     1      -5.066  63.335  41.174  1.00  0.00    -0.387 OA
ATOM     29  H   UNL     1      -4.302  63.245  41.769  1.00  0.00     0.211 HD
ENDBRANCH   2  28
TORSDOF 14
ENDMDL
MODEL 7
REMARK VINA RESULT:    -6.709      2.667      6.495
REMARK INTER + INTRA:         -11.852
REMARK INTER:                 -10.279
REMARK INTRA:                  -1.573
REMARK UNBOUND:                -1.025
REMARK SMILES O=P(O)(O)OC[C@H]1O[C@H](O[P@@](=O)(O)OP(=O)(O)O)[C@H](O)[C@@H]1O
REMARK SMILES IDX 8 1 21 2 7 3 19 4 9 5 10 6 11 7 12 8 14 9 15 10 16 11 17 12
REMARK SMILES IDX 18 14 13 16 20 18 6 20 5 21 2 22 1 23 3 24 4 26 22 28
REMARK H PARENT 17 13 18 15 13 17 20 19 3 25 4 27 22 29
REMARK Flexibility Score: inf
ROOT
ATOM      1  O   UNL     1      -3.344  60.545  38.072  1.00  0.00    -0.341 OA
ATOM      2  C   UNL     1      -1.633  59.065  38.768  1.00  0.00     0.179 C 
ATOM      3  C   UNL     1      -2.976  59.670  39.156  1.00  0.00     0.179 C 
ATOM      4  C   UNL     1      -1.766  58.979  37.263  1.00  0.00     0.202 C 
ATOM      5  C   UNL     1      -2.443  60.312  36.973  1.00  0.00     0.293 C 
ENDROOT
BRANCH   5   6
ATOM      6  O   UNL     1      -3.101  60.287  35.719  1.00  0.00    -0.253 OA
BRANCH   6   7
ATOM      7  P   UNL     1      -4.556  60.978  35.554  1.00  0.00     0.483 P 
ATOM      8  O   UNL     1      -5.704  60.158  36.068  1.00  0.00    -0.228 OA
BRANCH   7   9
ATOM      9  O   UNL     1      -4.655  61.344  33.982  1.00  0.00    -0.185 OA
BRANCH   9  10
ATOM     10  P   UNL     1      -3.910  62.481  33.109  1.00  0.00     0.478 P 
ATOM     11  O   UNL     1      -4.680  63.759  32.957  1.00  0.00    -0.228 OA
BRANCH  10  12
ATOM     12  O   UNL     1      -3.564  61.715  31.728  1.00  0.00    -0.302 OA
ATOM     13  H   UNL     1      -4.010  62.000  30.903  1.00  0.00     0.223 HD
ENDBRANCH  10  12
BRANCH  10  14
ATOM     14  O   UNL     1      -2.471  62.622  33.832  1.00  0.00    -0.302 OA
ATOM     15  H   UNL     1      -2.389  62.382  34.779  1.00  0.00     0.223 HD
ENDBRANCH  10  14
ENDBRANCH   9  10
ENDBRANCH   7   9
BRANCH   7  16
ATOM     16  O   UNL     1      -4.397  62.423  36.262  1.00  0.00    -0.302 OA
ATOM     17  H   UNL     1      -4.342  62.468  37.241  1.00  0.00     0.223 HD
ENDBRANCH   7  16
ENDBRANCH   6   7
ENDBRANCH   5   6
BRANCH   4  18
ATOM     18  O   UNL     1      -2.631  57.899  36.920  1.00  0.00    -0.385 OA
ATOM     19  H   UNL     1      -3.100  57.605  37.718  1.00  0.00     0.211 HD
ENDBRANCH   4  18
BRANCH   3  20
ATOM     20  C   UNL     1      -2.928  60.456  40.454  1.00  0.00     0.208 C 
BRANCH  20  21
ATOM     21  O   UNL     1      -2.901  61.841  40.149  1.00  0.00    -0.284 OA
BRANCH  21  22
ATOM     22  P   UNL     1      -4.225  62.722  40.451  1.00  0.00     0.469 P 
ATOM     23  O   UNL     1      -5.295  62.014  41.229  1.00  0.00    -0.228 OA
BRANCH  22  24
ATOM     24  O   UNL     1      -4.670  63.258  38.993  1.00  0.00    -0.303 OA
ATOM     25  H   UNL     1      -3.993  63.335  38.287  1.00  0.00     0.223 HD
ENDBRANCH  22  24
BRANCH  22  26
ATOM     26  O   UNL     1      -3.623  64.042  41.166  1.00  0.00    -0.303 OA
ATOM     27  H   UNL     1      -3.153  63.946  42.021  1.00  0.00     0.223 HD
ENDBRANCH  22  26
ENDBRANCH  21  22
ENDBRANCH  20  21
ENDBRANCH   3  20
BRANCH   2  28
ATOM     28  O   UNL     1      -1.418  57.814  39.385  1.00  0.00    -0.387 OA
ATOM     29  H   UNL     1      -0.469  57.742  39.585  1.00  0.00     0.211 HD
ENDBRANCH   2  28
TORSDOF 14
ENDMDL
MODEL 8
REMARK VINA RESULT:    -6.694      1.871      3.156
REMARK INTER + INTRA:         -11.828
REMARK INTER:                 -10.313
REMARK INTRA:                  -1.515
REMARK UNBOUND:                -1.025
REMARK SMILES O=P(O)(O)OC[C@H]1O[C@H](O[P@@](=O)(O)OP(=O)(O)O)[C@H](O)[C@@H]1O
REMARK SMILES IDX 8 1 21 2 7 3 19 4 9 5 10 6 11 7 12 8 14 9 15 10 16 11 17 12
REMARK SMILES IDX 18 14 13 16 20 18 6 20 5 21 2 22 1 23 3 24 4 26 22 28
REMARK H PARENT 17 13 18 15 13 17 20 19 3 25 4 27 22 29
REMARK Flexibility Score: inf
ROOT
ATOM      1  O   UNL     1      -2.717  60.931  37.517  1.00  0.00    -0.341 OA
ATOM      2  C   UNL     1      -3.654  59.630  35.776  1.00  0.00     0.179 C 
ATOM      3  C   UNL     1      -2.679  60.758  36.087  1.00  0.00     0.179 C 
ATOM      4  C   UNL     1      -3.511  58.762  37.007  1.00  0.00     0.202 C 
ATOM      5  C   UNL     1      -3.451  59.831  38.089  1.00  0.00     0.293 C 
ENDROOT
BRANCH   5   6
ATOM      6  O   UNL     1      -2.853  59.328  39.270  1.00  0.00    -0.253 OA
BRANCH   6   7
ATOM      7  P   UNL     1      -3.741  59.135  40.609  1.00  0.00     0.483 P 
ATOM      8  O   UNL     1      -4.579  57.889  40.635  1.00  0.00    -0.228 OA
BRANCH   7   9
ATOM      9  O   UNL     1      -4.590  60.506  40.734  1.00  0.00    -0.185 OA
BRANCH   9  10
ATOM     10  P   UNL     1      -4.154  61.982  41.226  1.00  0.00     0.478 P 
ATOM     11  O   UNL     1      -5.044  63.090  40.748  1.00  0.00    -0.228 OA
BRANCH  10  12
ATOM     12  O   UNL     1      -2.611  62.084  40.755  1.00  0.00    -0.302 OA
ATOM     13  H   UNL     1      -1.943  61.510  41.188  1.00  0.00     0.223 HD
ENDBRANCH  10  12
BRANCH  10  14
ATOM     14  O   UNL     1      -4.047  61.824  42.831  1.00  0.00    -0.302 OA
ATOM     15  H   UNL     1      -3.567  62.508  43.345  1.00  0.00     0.223 HD
ENDBRANCH  10  14
ENDBRANCH   9  10
ENDBRANCH   7   9
BRANCH   7  16
ATOM     16  O   UNL     1      -2.674  59.247  41.820  1.00  0.00    -0.302 OA
ATOM     17  H   UNL     1      -3.006  59.277  42.743  1.00  0.00     0.223 HD
ENDBRANCH   7  16
ENDBRANCH   6   7
ENDBRANCH   5   6
BRANCH   4  18
ATOM     18  O   UNL     1      -2.279  58.047  36.948  1.00  0.00    -0.385 OA
ATOM     19  H   UNL     1      -2.103  57.650  37.818  1.00  0.00     0.211 HD
ENDBRANCH   4  18
BRANCH   3  20
ATOM     20  C   UNL     1      -3.038  62.066  35.404  1.00  0.00     0.208 C 
BRANCH  20  21
ATOM     21  O   UNL     1      -3.825  61.783  34.259  1.00  0.00    -0.284 OA
BRANCH  21  22
ATOM     22  P   UNL     1      -3.559  62.638  32.910  1.00  0.00     0.469 P 
ATOM     23  O   UNL     1      -4.471  63.813  32.713  1.00  0.00    -0.228 OA
BRANCH  22  24
ATOM     24  O   UNL     1      -3.598  61.527  31.737  1.00  0.00    -0.303 OA
ATOM     25  H   UNL     1      -3.291  61.773  30.838  1.00  0.00     0.223 HD
ENDBRANCH  22  24
BRANCH  22  26
ATOM     26  O   UNL     1      -1.988  63.006  33.021  1.00  0.00    -0.303 OA
ATOM     27  H   UNL     1      -1.730  63.889  33.361  1.00  0.00     0.223 HD
ENDBRANCH  22  26
ENDBRANCH  21  22
ENDBRANCH  20  21
ENDBRANCH   3  20
BRANCH   2  28
ATOM     28  O   UNL     1      -3.325  58.962  34.577  1.00  0.00    -0.387 OA
ATOM     29  H   UNL     1      -4.084  59.045  33.974  1.00  0.00     0.211 HD
ENDBRANCH   2  28
TORSDOF 14
ENDMDL
MODEL 9
REMARK VINA RESULT:    -6.665      3.269      6.965
REMARK INTER + INTRA:         -11.780
REMARK INTER:                  -9.740
REMARK INTRA:                  -2.041
REMARK UNBOUND:                -1.025
REMARK SMILES O=P(O)(O)OC[C@H]1O[C@H](O[P@@](=O)(O)OP(=O)(O)O)[C@H](O)[C@@H]1O
REMARK SMILES IDX 8 1 21 2 7 3 19 4 9 5 10 6 11 7 12 8 14 9 15 10 16 11 17 12
REMARK SMILES IDX 18 14 13 16 20 18 6 20 5 21 2 22 1 23 3 24 4 26 22 28
REMARK H PARENT 17 13 18 15 13 17 20 19 3 25 4 27 22 29
REMARK Flexibility Score: inf
ROOT
ATOM      1  O   UNL     1      -4.258  62.435  36.960  1.00  0.00    -0.341 OA
ATOM      2  C   UNL     1      -4.685  62.621  39.281  1.00  0.00     0.179 C 
ATOM      3  C   UNL     1      -3.649  62.869  38.192  1.00  0.00     0.179 C 
ATOM      4  C   UNL     1      -5.975  62.866  38.529  1.00  0.00     0.202 C 
ATOM      5  C   UNL     1      -5.654  62.182  37.207  1.00  0.00     0.293 C 
ENDROOT
BRANCH   5   6
ATOM      6  O   UNL     1      -6.490  62.662  36.168  1.00  0.00    -0.253 OA
BRANCH   6   7
ATOM      7  P   UNL     1      -6.450  61.963  34.709  1.00  0.00     0.483 P 
ATOM      8  O   UNL     1      -6.045  60.518  34.714  1.00  0.00    -0.228 OA
BRANCH   7   9
ATOM      9  O   UNL     1      -5.488  62.918  33.828  1.00  0.00    -0.185 OA
BRANCH   9  10
ATOM     10  P   UNL     1      -4.057  62.632  33.134  1.00  0.00     0.478 P 
ATOM     11  O   UNL     1      -4.128  61.874  31.842  1.00  0.00    -0.228 OA
BRANCH  10  12
ATOM     12  O   UNL     1      -3.217  61.911  34.312  1.00  0.00    -0.302 OA
ATOM     13  H   UNL     1      -3.456  60.996  34.575  1.00  0.00     0.223 HD
ENDBRANCH  10  12
BRANCH  10  14
ATOM     14  O   UNL     1      -3.388  64.100  33.039  1.00  0.00    -0.302 OA
ATOM     15  H   UNL     1      -3.392  64.569  32.177  1.00  0.00     0.223 HD
ENDBRANCH  10  14
ENDBRANCH   9  10
ENDBRANCH   7   9
BRANCH   7  16
ATOM     16  O   UNL     1      -7.918  62.243  34.089  1.00  0.00    -0.302 OA
ATOM     17  H   UNL     1      -8.170  63.164  33.863  1.00  0.00     0.223 HD
ENDBRANCH   7  16
ENDBRANCH   6   7
ENDBRANCH   5   6
BRANCH   4  18
ATOM     18  O   UNL     1      -6.155  64.267  38.331  1.00  0.00    -0.385 OA
ATOM     19  H   UNL     1      -7.080  64.433  38.083  1.00  0.00     0.211 HD
ENDBRANCH   4  18
BRANCH   3  20
ATOM     20  C   UNL     1      -2.352  62.112  38.416  1.00  0.00     0.208 C 
BRANCH  20  21
ATOM     21  O   UNL     1      -2.632  60.723  38.450  1.00  0.00    -0.284 OA
BRANCH  21  22
ATOM     22  P   UNL     1      -2.224  59.822  37.169  1.00  0.00     0.469 P 
ATOM     23  O   UNL     1      -1.416  58.598  37.486  1.00  0.00    -0.228 OA
BRANCH  22  24
ATOM     24  O   UNL     1      -1.519  60.876  36.167  1.00  0.00    -0.303 OA
ATOM     25  H   UNL     1      -0.650  60.647  35.772  1.00  0.00     0.223 HD
ENDBRANCH  22  24
BRANCH  22  26
ATOM     26  O   UNL     1      -3.650  59.534  36.463  1.00  0.00    -0.303 OA
ATOM     27  H   UNL     1      -3.819  59.898  35.568  1.00  0.00     0.223 HD
ENDBRANCH  22  26
ENDBRANCH  21  22
ENDBRANCH  20  21
ENDBRANCH   3  20
BRANCH   2  28
ATOM     28  O   UNL     1      -4.508  63.480  40.386  1.00  0.00    -0.387 OA
ATOM     29  H   UNL     1      -5.380  63.834  40.628  1.00  0.00     0.211 HD
ENDBRANCH   2  28
TORSDOF 14
ENDMDL
MODEL 10
REMARK VINA RESULT:    -6.604      3.016      5.442
REMARK INTER + INTRA:         -11.682
REMARK INTER:                 -10.109
REMARK INTRA:                  -1.573
REMARK UNBOUND:                -1.025
REMARK SMILES O=P(O)(O)OC[C@H]1O[C@H](O[P@@](=O)(O)OP(=O)(O)O)[C@H](O)[C@@H]1O
REMARK SMILES IDX 8 1 21 2 7 3 19 4 9 5 10 6 11 7 12 8 14 9 15 10 16 11 17 12
REMARK SMILES IDX 18 14 13 16 20 18 6 20 5 21 2 22 1 23 3 24 4 26 22 28
REMARK H PARENT 17 13 18 15 13 17 20 19 3 25 4 27 22 29
REMARK Flexibility Score: inf
ROOT
ATOM      1  O   UNL     1      -5.534  59.957  34.008  1.00  0.00    -0.341 OA
ATOM      2  C   UNL     1      -5.615  57.593  33.923  1.00  0.00     0.179 C 
ATOM      3  C   UNL     1      -6.103  58.870  33.251  1.00  0.00     0.179 C 
ATOM      4  C   UNL     1      -4.246  58.014  34.409  1.00  0.00     0.202 C 
ATOM      5  C   UNL     1      -4.555  59.416  34.916  1.00  0.00     0.293 C 
ENDROOT
BRANCH   5   6
ATOM      6  O   UNL     1      -3.380  60.203  34.989  1.00  0.00    -0.253 OA
BRANCH   6   7
ATOM      7  P   UNL     1      -3.458  61.727  35.529  1.00  0.00     0.483 P 
ATOM      8  O   UNL     1      -4.788  62.124  36.102  1.00  0.00    -0.228 OA
BRANCH   7   9
ATOM      9  O   UNL     1      -2.983  62.627  34.273  1.00  0.00    -0.185 OA
BRANCH   9  10
ATOM     10  P   UNL     1      -3.761  63.066  32.927  1.00  0.00     0.478 P 
ATOM     11  O   UNL     1      -3.710  62.058  31.818  1.00  0.00    -0.228 OA
BRANCH  10  12
ATOM     12  O   UNL     1      -3.114  64.506  32.582  1.00  0.00    -0.302 OA
ATOM     13  H   UNL     1      -2.150  64.564  32.409  1.00  0.00     0.223 HD
ENDBRANCH  10  12
BRANCH  10  14
ATOM     14  O   UNL     1      -5.243  63.436  33.458  1.00  0.00    -0.302 OA
ATOM     15  H   UNL     1      -6.010  63.291  32.863  1.00  0.00     0.223 HD
ENDBRANCH  10  14
ENDBRANCH   9  10
ENDBRANCH   7   9
BRANCH   7  16
ATOM     16  O   UNL     1      -2.222  61.851  36.565  1.00  0.00    -0.302 OA
ATOM     17  H   UNL     1      -1.382  62.254  36.255  1.00  0.00     0.223 HD
ENDBRANCH   7  16
ENDBRANCH   6   7
ENDBRANCH   5   6
BRANCH   4  18
ATOM     18  O   UNL     1      -3.343  58.075  33.307  1.00  0.00    -0.385 OA
ATOM     19  H   UNL     1      -2.802  57.267  33.297  1.00  0.00     0.211 HD
ENDBRANCH   4  18
BRANCH   3  20
ATOM     20  C   UNL     1      -7.616  58.997  33.233  1.00  0.00     0.208 C 
BRANCH  20  21
ATOM     21  O   UNL     1      -8.057  59.395  34.521  1.00  0.00    -0.284 OA
BRANCH  21  22
ATOM     22  P   UNL     1      -8.742  60.852  34.685  1.00  0.00     0.469 P 
ATOM     23  O   UNL     1      -9.710  61.224  33.601  1.00  0.00    -0.228 OA
BRANCH  22  24
ATOM     24  O   UNL     1      -7.484  61.851  34.862  1.00  0.00    -0.303 OA
ATOM     25  H   UNL     1      -6.940  61.791  35.676  1.00  0.00     0.223 HD
ENDBRANCH  22  24
BRANCH  22  26
ATOM     26  O   UNL     1      -9.376  60.786  36.172  1.00  0.00    -0.303 OA
ATOM     27  H   UNL     1      -9.177  60.010  36.739  1.00  0.00     0.223 HD
ENDBRANCH  22  26
ENDBRANCH  21  22
ENDBRANCH  20  21
ENDBRANCH   3  20
BRANCH   2  28
ATOM     28  O   UNL     1      -5.581  56.504  33.026  1.00  0.00    -0.387 OA
ATOM     29  H   UNL     1      -5.101  56.790  32.230  1.00  0.00     0.211 HD
ENDBRANCH   2  28
TORSDOF 14
ENDMDL
MODEL 11
REMARK VINA RESULT:    -6.495      3.481      6.987
REMARK INTER + INTRA:         -11.506
REMARK INTER:                 -10.033
REMARK INTRA:                  -1.473
REMARK UNBOUND:                -1.025
REMARK SMILES O=P(O)(O)OC[C@H]1O[C@H](O[P@@](=O)(O)OP(=O)(O)O)[C@H](O)[C@@H]1O
REMARK SMILES IDX 8 1 21 2 7 3 19 4 9 5 10 6 11 7 12 8 14 9 15 10 16 11 17 12
REMARK SMILES IDX 18 14 13 16 20 18 6 20 5 21 2 22 1 23 3 24 4 26 22 28
REMARK H PARENT 17 13 18 15 13 17 20 19 3 25 4 27 22 29
REMARK Flexibility Score: inf
ROOT
ATOM      1  O   UNL     1      -3.224  62.073  39.132  1.00  0.00    -0.341 OA
ATOM      2  C   UNL     1      -5.409  62.385  39.989  1.00  0.00     0.179 C 
ATOM      3  C   UNL     1      -3.929  62.375  40.352  1.00  0.00     0.179 C 
ATOM      4  C   UNL     1      -5.365  62.907  38.569  1.00  0.00     0.202 C 
ATOM      5  C   UNL     1      -4.157  62.149  38.037  1.00  0.00     0.293 C 
ENDROOT
BRANCH   5   6
ATOM      6  O   UNL     1      -3.613  62.791  36.897  1.00  0.00    -0.253 OA
BRANCH   6   7
ATOM      7  P   UNL     1      -3.520  62.000  35.489  1.00  0.00     0.483 P 
ATOM      8  O   UNL     1      -3.852  62.826  34.279  1.00  0.00    -0.228 OA
BRANCH   7   9
ATOM      9  O   UNL     1      -4.469  60.706  35.687  1.00  0.00    -0.185 OA
BRANCH   9  10
ATOM     10  P   UNL     1      -4.275  59.168  35.231  1.00  0.00     0.478 P 
ATOM     11  O   UNL     1      -5.531  58.348  35.242  1.00  0.00    -0.228 OA
BRANCH  10  12
ATOM     12  O   UNL     1      -3.099  58.642  36.208  1.00  0.00    -0.302 OA
ATOM     13  H   UNL     1      -2.212  59.057  36.148  1.00  0.00     0.223 HD
ENDBRANCH  10  12
BRANCH  10  14
ATOM     14  O   UNL     1      -3.544  59.295  33.795  1.00  0.00    -0.302 OA
ATOM     15  H   UNL     1      -3.844  58.723  33.057  1.00  0.00     0.223 HD
ENDBRANCH  10  14
ENDBRANCH   9  10
ENDBRANCH   7   9
BRANCH   7  16
ATOM     16  O   UNL     1      -2.031  61.369  35.479  1.00  0.00    -0.302 OA
ATOM     17  H   UNL     1      -1.922  60.412  35.294  1.00  0.00     0.223 HD
ENDBRANCH   7  16
ENDBRANCH   6   7
ENDBRANCH   5   6
BRANCH   4  18
ATOM     18  O   UNL     1      -5.104  64.309  38.582  1.00  0.00    -0.385 OA
ATOM     19  H   UNL     1      -5.794  64.753  39.102  1.00  0.00     0.211 HD
ENDBRANCH   4  18
BRANCH   3  20
ATOM     20  C   UNL     1      -3.579  61.346  41.413  1.00  0.00     0.208 C 
BRANCH  20  21
ATOM     21  O   UNL     1      -2.613  60.454  40.883  1.00  0.00    -0.284 OA
BRANCH  21  22
ATOM     22  P   UNL     1      -3.025  58.901  40.683  1.00  0.00     0.469 P 
ATOM     23  O   UNL     1      -4.408  58.547  41.146  1.00  0.00    -0.228 OA
BRANCH  22  24
ATOM     24  O   UNL     1      -1.826  58.089  41.401  1.00  0.00    -0.303 OA
ATOM     25  H   UNL     1      -1.503  57.258  40.992  1.00  0.00     0.223 HD
ENDBRANCH  22  24
BRANCH  22  26
ATOM     26  O   UNL     1      -2.750  58.657  39.108  1.00  0.00    -0.303 OA
ATOM     27  H   UNL     1      -2.505  57.757  38.803  1.00  0.00     0.223 HD
ENDBRANCH  22  26
ENDBRANCH  21  22
ENDBRANCH  20  21
ENDBRANCH   3  20
BRANCH   2  28
ATOM     28  O   UNL     1      -6.162  63.197  40.863  1.00  0.00    -0.387 OA
ATOM     29  H   UNL     1      -5.610  63.388  41.640  1.00  0.00     0.211 HD
ENDBRANCH   2  28
TORSDOF 14
ENDMDL
MODEL 12
REMARK VINA RESULT:    -6.447      2.428      7.171
REMARK INTER + INTRA:         -11.429
REMARK INTER:                  -9.570
REMARK INTRA:                  -1.859
REMARK UNBOUND:                -1.025
REMARK SMILES O=P(O)(O)OC[C@H]1O[C@H](O[P@@](=O)(O)OP(=O)(O)O)[C@H](O)[C@@H]1O
REMARK SMILES IDX 8 1 21 2 7 3 19 4 9 5 10 6 11 7 12 8 14 9 15 10 16 11 17 12
REMARK SMILES IDX 18 14 13 16 20 18 6 20 5 21 2 22 1 23 3 24 4 26 22 28
REMARK H PARENT 17 13 18 15 13 17 20 19 3 25 4 27 22 29
REMARK Flexibility Score: inf
ROOT
ATOM      1  O   UNL     1      -4.758  60.411  37.513  1.00  0.00    -0.341 OA
ATOM      2  C   UNL     1      -2.908  59.585  38.737  1.00  0.00     0.179 C 
ATOM      3  C   UNL     1      -4.423  59.742  38.745  1.00  0.00     0.179 C 
ATOM      4  C   UNL     1      -2.633  59.404  37.260  1.00  0.00     0.202 C 
ATOM      5  C   UNL     1      -3.586  60.437  36.676  1.00  0.00     0.293 C 
ENDROOT
BRANCH   5   6
ATOM      6  O   UNL     1      -3.876  60.154  35.318  1.00  0.00    -0.253 OA
BRANCH   6   7
ATOM      7  P   UNL     1      -5.159  60.835  34.605  1.00  0.00     0.483 P 
ATOM      8  O   UNL     1      -6.394  59.982  34.584  1.00  0.00    -0.228 OA
BRANCH   7   9
ATOM      9  O   UNL     1      -4.627  61.267  33.140  1.00  0.00    -0.185 OA
BRANCH   9  10
ATOM     10  P   UNL     1      -3.651  62.468  32.678  1.00  0.00     0.478 P 
ATOM     11  O   UNL     1      -2.977  62.255  31.355  1.00  0.00    -0.228 OA
BRANCH  10  12
ATOM     12  O   UNL     1      -2.656  62.638  33.940  1.00  0.00    -0.302 OA
ATOM     13  H   UNL     1      -1.771  62.216  33.907  1.00  0.00     0.223 HD
ENDBRANCH  10  12
BRANCH  10  14
ATOM     14  O   UNL     1      -4.599  63.774  32.768  1.00  0.00    -0.302 OA
ATOM     15  H   UNL     1      -4.244  64.592  33.177  1.00  0.00     0.223 HD
ENDBRANCH  10  14
ENDBRANCH   9  10
ENDBRANCH   7   9
BRANCH   7  16
ATOM     16  O   UNL     1      -5.339  62.251  35.366  1.00  0.00    -0.302 OA
ATOM     17  H   UNL     1      -6.239  62.632  35.453  1.00  0.00     0.223 HD
ENDBRANCH   7  16
ENDBRANCH   6   7
ENDBRANCH   5   6
BRANCH   4  18
ATOM     18  O   UNL     1      -3.020  58.091  36.859  1.00  0.00    -0.385 OA
ATOM     19  H   UNL     1      -2.350  57.737  36.250  1.00  0.00     0.211 HD
ENDBRANCH   4  18
BRANCH   3  20
ATOM     20  C   UNL     1      -4.936  60.552  39.922  1.00  0.00     0.208 C 
BRANCH  20  21
ATOM     21  O   UNL     1      -4.878  59.749  41.090  1.00  0.00    -0.284 OA
BRANCH  21  22
ATOM     22  P   UNL     1      -3.966  60.254  42.328  1.00  0.00     0.469 P 
ATOM     23  O   UNL     1      -4.659  60.276  43.659  1.00  0.00    -0.228 OA
BRANCH  22  24
ATOM     24  O   UNL     1      -3.390  61.679  41.826  1.00  0.00    -0.303 OA
ATOM     25  H   UNL     1      -4.000  62.445  41.770  1.00  0.00     0.223 HD
ENDBRANCH  22  24
BRANCH  22  26
ATOM     26  O   UNL     1      -2.677  59.282  42.246  1.00  0.00    -0.303 OA
ATOM     27  H   UNL     1      -2.775  58.397  41.834  1.00  0.00     0.223 HD
ENDBRANCH  22  26
ENDBRANCH  21  22
ENDBRANCH  20  21
ENDBRANCH   3  20
BRANCH   2  28
ATOM     28  O   UNL     1      -2.486  58.494  39.525  1.00  0.00    -0.387 OA
ATOM     29  H   UNL     1      -2.824  58.631  40.426  1.00  0.00     0.211 HD
ENDBRANCH   2  28
TORSDOF 14
ENDMDL
MODEL 13
REMARK VINA RESULT:    -6.435      1.848      3.015
REMARK INTER + INTRA:         -11.410
REMARK INTER:                  -9.751
REMARK INTRA:                  -1.659
REMARK UNBOUND:                -1.025
REMARK SMILES O=P(O)(O)OC[C@H]1O[C@H](O[P@@](=O)(O)OP(=O)(O)O)[C@H](O)[C@@H]1O
REMARK SMILES IDX 8 1 21 2 7 3 19 4 9 5 10 6 11 7 12 8 14 9 15 10 16 11 17 12
REMARK SMILES IDX 18 14 13 16 20 18 6 20 5 21 2 22 1 23 3 24 4 26 22 28
REMARK H PARENT 17 13 18 15 13 17 20 19 3 25 4 27 22 29
REMARK Flexibility Score: inf
ROOT
ATOM      1  O   UNL     1      -3.566  60.589  37.135  1.00  0.00    -0.341 OA
ATOM      2  C   UNL     1      -4.044  59.810  34.951  1.00  0.00     0.179 C 
ATOM      3  C   UNL     1      -3.110  60.691  35.772  1.00  0.00     0.179 C 
ATOM      4  C   UNL     1      -4.363  58.710  35.940  1.00  0.00     0.202 C 
ATOM      5  C   UNL     1      -4.537  59.528  37.212  1.00  0.00     0.293 C 
ENDROOT
BRANCH   5   6
ATOM      6  O   UNL     1      -4.377  58.720  38.364  1.00  0.00    -0.253 OA
BRANCH   6   7
ATOM      7  P   UNL     1      -5.555  58.646  39.472  1.00  0.00     0.483 P 
ATOM      8  O   UNL     1      -6.809  59.387  39.107  1.00  0.00    -0.228 OA
BRANCH   7   9
ATOM      9  O   UNL     1      -4.859  59.154  40.839  1.00  0.00    -0.185 OA
BRANCH   9  10
ATOM     10  P   UNL     1      -3.315  59.483  41.185  1.00  0.00     0.478 P 
ATOM     11  O   UNL     1      -3.075  59.960  42.586  1.00  0.00    -0.228 OA
BRANCH  10  12
ATOM     12  O   UNL     1      -2.892  60.520  40.020  1.00  0.00    -0.302 OA
ATOM     13  H   UNL     1      -3.485  60.634  39.247  1.00  0.00     0.223 HD
ENDBRANCH  10  12
BRANCH  10  14
ATOM     14  O   UNL     1      -2.544  58.122  40.776  1.00  0.00    -0.302 OA
ATOM     15  H   UNL     1      -1.573  58.149  40.641  1.00  0.00     0.223 HD
ENDBRANCH  10  14
ENDBRANCH   9  10
ENDBRANCH   7   9
BRANCH   7  16
ATOM     16  O   UNL     1      -5.766  57.063  39.729  1.00  0.00    -0.302 OA
ATOM     17  H   UNL     1      -6.386  56.567  39.152  1.00  0.00     0.223 HD
ENDBRANCH   7  16
ENDBRANCH   6   7
ENDBRANCH   5   6
BRANCH   4  18
ATOM     18  O   UNL     1      -3.243  57.836  36.063  1.00  0.00    -0.385 OA
ATOM     19  H   UNL     1      -2.644  57.983  35.312  1.00  0.00     0.211 HD
ENDBRANCH   4  18
BRANCH   3  20
ATOM     20  C   UNL     1      -3.121  62.145  35.336  1.00  0.00     0.208 C 
BRANCH  20  21
ATOM     21  O   UNL     1      -4.082  62.307  34.305  1.00  0.00    -0.284 OA
BRANCH  21  22
ATOM     22  P   UNL     1      -3.656  63.127  32.976  1.00  0.00     0.469 P 
ATOM     23  O   UNL     1      -2.530  64.100  33.165  1.00  0.00    -0.228 OA
BRANCH  22  24
ATOM     24  O   UNL     1      -5.046  63.770  32.460  1.00  0.00    -0.303 OA
ATOM     25  H   UNL     1      -5.860  63.222  32.481  1.00  0.00     0.223 HD
ENDBRANCH  22  24
BRANCH  22  26
ATOM     26  O   UNL     1      -3.369  61.951  31.904  1.00  0.00    -0.303 OA
ATOM     27  H   UNL     1      -3.951  61.162  31.898  1.00  0.00     0.223 HD
ENDBRANCH  22  26
ENDBRANCH  21  22
ENDBRANCH  20  21
ENDBRANCH   3  20
BRANCH   2  28
ATOM     28  O   UNL     1      -3.428  59.342  33.771  1.00  0.00    -0.387 OA
ATOM     29  H   UNL     1      -3.640  59.969  33.058  1.00  0.00     0.211 HD
ENDBRANCH   2  28
TORSDOF 14
ENDMDL
MODEL 14
REMARK VINA RESULT:    -6.417      3.594      6.897
REMARK INTER + INTRA:         -11.381
REMARK INTER:                  -9.259
REMARK INTRA:                  -2.122
REMARK UNBOUND:                -1.025
REMARK SMILES O=P(O)(O)OC[C@H]1O[C@H](O[P@@](=O)(O)OP(=O)(O)O)[C@H](O)[C@@H]1O
REMARK SMILES IDX 8 1 21 2 7 3 19 4 9 5 10 6 11 7 12 8 14 9 15 10 16 11 17 12
REMARK SMILES IDX 18 14 13 16 20 18 6 20 5 21 2 22 1 23 3 24 4 26 22 28
REMARK H PARENT 17 13 18 15 13 17 20 19 3 25 4 27 22 29
REMARK Flexibility Score: inf
ROOT
ATOM      1  O   UNL     1      -4.027  62.077  38.977  1.00  0.00    -0.341 OA
ATOM      2  C   UNL     1      -5.893  62.523  40.363  1.00  0.00     0.179 C 
ATOM      3  C   UNL     1      -4.370  62.534  40.299  1.00  0.00     0.179 C 
ATOM      4  C   UNL     1      -6.255  62.871  38.936  1.00  0.00     0.202 C 
ATOM      5  C   UNL     1      -5.228  62.036  38.183  1.00  0.00     0.293 C 
ENDROOT
BRANCH   5   6
ATOM      6  O   UNL     1      -5.034  62.529  36.869  1.00  0.00    -0.253 OA
BRANCH   6   7
ATOM      7  P   UNL     1      -3.767  62.028  35.995  1.00  0.00     0.483 P 
ATOM      8  O   UNL     1      -3.831  62.379  34.536  1.00  0.00    -0.228 OA
BRANCH   7   9
ATOM      9  O   UNL     1      -3.672  60.441  36.291  1.00  0.00    -0.185 OA
BRANCH   9  10
ATOM     10  P   UNL     1      -2.414  59.512  36.694  1.00  0.00     0.478 P 
ATOM     11  O   UNL     1      -2.627  58.042  36.483  1.00  0.00    -0.228 OA
BRANCH  10  12
ATOM     12  O   UNL     1      -2.106  59.953  38.218  1.00  0.00    -0.302 OA
ATOM     13  H   UNL     1      -1.174  59.983  38.524  1.00  0.00     0.223 HD
ENDBRANCH  10  12
BRANCH  10  14
ATOM     14  O   UNL     1      -1.190  60.159  35.860  1.00  0.00    -0.302 OA
ATOM     15  H   UNL     1      -1.386  60.826  35.168  1.00  0.00     0.223 HD
ENDBRANCH  10  14
ENDBRANCH   9  10
ENDBRANCH   7   9
BRANCH   7  16
ATOM     16  O   UNL     1      -2.481  62.628  36.770  1.00  0.00    -0.302 OA
ATOM     17  H   UNL     1      -2.498  62.679  37.749  1.00  0.00     0.223 HD
ENDBRANCH   7  16
ENDBRANCH   6   7
ENDBRANCH   5   6
BRANCH   4  18
ATOM     18  O   UNL     1      -6.026  64.260  38.708  1.00  0.00    -0.385 OA
ATOM     19  H   UNL     1      -5.697  64.381  37.801  1.00  0.00     0.211 HD
ENDBRANCH   4  18
BRANCH   3  20
ATOM     20  C   UNL     1      -3.721  61.634  41.336  1.00  0.00     0.208 C 
BRANCH  20  21
ATOM     21  O   UNL     1      -3.088  60.553  40.671  1.00  0.00    -0.284 OA
BRANCH  21  22
ATOM     22  P   UNL     1      -3.562  59.046  41.024  1.00  0.00     0.469 P 
ATOM     23  O   UNL     1      -4.362  58.912  42.287  1.00  0.00    -0.228 OA
BRANCH  22  24
ATOM     24  O   UNL     1      -2.191  58.192  40.980  1.00  0.00    -0.303 OA
ATOM     25  H   UNL     1      -1.768  57.928  41.826  1.00  0.00     0.223 HD
ENDBRANCH  22  24
BRANCH  22  26
ATOM     26  O   UNL     1      -4.331  58.586  39.678  1.00  0.00    -0.303 OA
ATOM     27  H   UNL     1      -4.514  57.633  39.537  1.00  0.00     0.223 HD
ENDBRANCH  22  26
ENDBRANCH  21  22
ENDBRANCH  20  21
ENDBRANCH   3  20
BRANCH   2  28
ATOM     28  O   UNL     1      -6.388  63.446  41.308  1.00  0.00    -0.387 OA
ATOM     29  H   UNL     1      -5.793  63.430  42.077  1.00  0.00     0.211 HD
ENDBRANCH   2  28
TORSDOF 14
ENDMDL
MODEL 15
REMARK VINA RESULT:    -6.398      2.594      6.495
REMARK INTER + INTRA:         -11.350
REMARK INTER:                  -9.917
REMARK INTRA:                  -1.434
REMARK UNBOUND:                -1.025
REMARK SMILES O=P(O)(O)OC[C@H]1O[C@H](O[P@@](=O)(O)OP(=O)(O)O)[C@H](O)[C@@H]1O
REMARK SMILES IDX 8 1 21 2 7 3 19 4 9 5 10 6 11 7 12 8 14 9 15 10 16 11 17 12
REMARK SMILES IDX 18 14 13 16 20 18 6 20 5 21 2 22 1 23 3 24 4 26 22 28
REMARK H PARENT 17 13 18 15 13 17 20 19 3 25 4 27 22 29
REMARK Flexibility Score: inf
ROOT
ATOM      1  O   UNL     1      -3.266  59.681  37.221  1.00  0.00    -0.341 OA
ATOM      2  C   UNL     1      -3.297  62.028  36.917  1.00  0.00     0.179 C 
ATOM      3  C   UNL     1      -2.784  60.905  37.810  1.00  0.00     0.179 C 
ATOM      4  C   UNL     1      -3.280  61.363  35.558  1.00  0.00     0.202 C 
ATOM      5  C   UNL     1      -3.811  59.984  35.923  1.00  0.00     0.293 C 
ENDROOT
BRANCH   5   6
ATOM      6  O   UNL     1      -3.457  59.025  34.942  1.00  0.00    -0.253 OA
BRANCH   6   7
ATOM      7  P   UNL     1      -3.804  57.461  35.175  1.00  0.00     0.483 P 
ATOM      8  O   UNL     1      -3.501  56.568  34.007  1.00  0.00    -0.228 OA
BRANCH   7   9
ATOM      9  O   UNL     1      -5.356  57.454  35.629  1.00  0.00    -0.185 OA
BRANCH   9  10
ATOM     10  P   UNL     1      -6.716  57.505  34.758  1.00  0.00     0.478 P 
ATOM     11  O   UNL     1      -7.965  57.197  35.528  1.00  0.00    -0.228 OA
BRANCH  10  12
ATOM     12  O   UNL     1      -6.400  56.508  33.526  1.00  0.00    -0.302 OA
ATOM     13  H   UNL     1      -7.128  55.962  33.158  1.00  0.00     0.223 HD
ENDBRANCH  10  12
BRANCH  10  14
ATOM     14  O   UNL     1      -6.668  58.971  34.077  1.00  0.00    -0.302 OA
ATOM     15  H   UNL     1      -6.482  59.043  33.117  1.00  0.00     0.223 HD
ENDBRANCH  10  14
ENDBRANCH   9  10
ENDBRANCH   7   9
BRANCH   7  16
ATOM     16  O   UNL     1      -3.018  57.073  36.534  1.00  0.00    -0.302 OA
ATOM     17  H   UNL     1      -2.245  56.471  36.480  1.00  0.00     0.223 HD
ENDBRANCH   7  16
ENDBRANCH   6   7
ENDBRANCH   5   6
BRANCH   4  18
ATOM     18  O   UNL     1      -1.937  61.268  35.088  1.00  0.00    -0.385 OA
ATOM     19  H   UNL     1      -1.873  60.525  34.464  1.00  0.00     0.211 HD
ENDBRANCH   4  18
BRANCH   3  20
ATOM     20  C   UNL     1      -3.271  61.009  39.244  1.00  0.00     0.208 C 
BRANCH  20  21
ATOM     21  O   UNL     1      -2.411  60.247  40.075  1.00  0.00    -0.284 OA
BRANCH  21  22
ATOM     22  P   UNL     1      -3.043  59.016  40.916  1.00  0.00     0.469 P 
ATOM     23  O   UNL     1      -3.623  59.390  42.248  1.00  0.00    -0.228 OA
BRANCH  22  24
ATOM     24  O   UNL     1      -1.848  57.929  40.963  1.00  0.00    -0.303 OA
ATOM     25  H   UNL     1      -2.033  57.033  41.318  1.00  0.00     0.223 HD
ENDBRANCH  22  24
BRANCH  22  26
ATOM     26  O   UNL     1      -4.095  58.369  39.871  1.00  0.00    -0.303 OA
ATOM     27  H   UNL     1      -3.768  58.058  39.001  1.00  0.00     0.223 HD
ENDBRANCH  22  26
ENDBRANCH  21  22
ENDBRANCH  20  21
ENDBRANCH   3  20
BRANCH   2  28
ATOM     28  O   UNL     1      -2.480  63.176  36.991  1.00  0.00    -0.387 OA
ATOM     29  H   UNL     1      -2.500  63.610  36.121  1.00  0.00     0.211 HD
ENDBRANCH   2  28
TORSDOF 14
ENDMDL
MODEL 16
REMARK VINA RESULT:    -6.377      1.856      3.141
REMARK INTER + INTRA:         -11.316
REMARK INTER:                 -10.174
REMARK INTRA:                  -1.142
REMARK UNBOUND:                -1.025
REMARK SMILES O=P(O)(O)OC[C@H]1O[C@H](O[P@@](=O)(O)OP(=O)(O)O)[C@H](O)[C@@H]1O
REMARK SMILES IDX 8 1 21 2 7 3 19 4 9 5 10 6 11 7 12 8 14 9 15 10 16 11 17 12
REMARK SMILES IDX 18 14 13 16 20 18 6 20 5 21 2 22 1 23 3 24 4 26 22 28
REMARK H PARENT 17 13 18 15 13 17 20 19 3 25 4 27 22 29
REMARK Flexibility Score: inf
ROOT
ATOM      1  O   UNL     1      -2.385  61.163  37.413  1.00  0.00    -0.341 OA
ATOM      2  C   UNL     1      -3.807  59.877  36.025  1.00  0.00     0.179 C 
ATOM      3  C   UNL     1      -2.709  60.933  36.028  1.00  0.00     0.179 C 
ATOM      4  C   UNL     1      -3.430  59.049  37.234  1.00  0.00     0.202 C 
ATOM      5  C   UNL     1      -3.033  60.151  38.206  1.00  0.00     0.293 C 
ENDROOT
BRANCH   5   6
ATOM      6  O   UNL     1      -2.202  59.646  39.237  1.00  0.00    -0.253 OA
BRANCH   6   7
ATOM      7  P   UNL     1      -2.766  59.535  40.750  1.00  0.00     0.483 P 
ATOM      8  O   UNL     1      -2.345  58.297  41.489  1.00  0.00    -0.228 OA
BRANCH   7   9
ATOM      9  O   UNL     1      -4.367  59.705  40.600  1.00  0.00    -0.185 OA
BRANCH   9  10
ATOM     10  P   UNL     1      -5.585  58.795  41.145  1.00  0.00     0.478 P 
ATOM     11  O   UNL     1      -6.942  59.208  40.659  1.00  0.00    -0.228 OA
BRANCH  10  12
ATOM     12  O   UNL     1      -5.384  58.836  42.748  1.00  0.00    -0.302 OA
ATOM     13  H   UNL     1      -4.815  58.159  43.173  1.00  0.00     0.223 HD
ENDBRANCH  10  12
BRANCH  10  14
ATOM     14  O   UNL     1      -5.136  57.294  40.748  1.00  0.00    -0.302 OA
ATOM     15  H   UNL     1      -5.059  57.056  39.799  1.00  0.00     0.223 HD
ENDBRANCH  10  14
ENDBRANCH   9  10
ENDBRANCH   7   9
BRANCH   7  16
ATOM     16  O   UNL     1      -2.310  60.918  41.452  1.00  0.00    -0.302 OA
ATOM     17  H   UNL     1      -1.728  60.881  42.241  1.00  0.00     0.223 HD
ENDBRANCH   7  16
ENDBRANCH   6   7
ENDBRANCH   5   6
BRANCH   4  18
ATOM     18  O   UNL     1      -2.302  58.233  36.923  1.00  0.00    -0.385 OA
ATOM     19  H   UNL     1      -2.595  57.310  36.839  1.00  0.00     0.211 HD
ENDBRANCH   4  18
BRANCH   3  20
ATOM     20  C   UNL     1      -3.130  62.238  35.377  1.00  0.00     0.208 C 
BRANCH  20  21
ATOM     21  O   UNL     1      -3.969  61.948  34.271  1.00  0.00    -0.284 OA
BRANCH  21  22
ATOM     22  P   UNL     1      -3.564  62.539  32.820  1.00  0.00     0.469 P 
ATOM     23  O   UNL     1      -3.751  61.589  31.673  1.00  0.00    -0.228 OA
BRANCH  22  24
ATOM     24  O   UNL     1      -2.056  63.080  33.032  1.00  0.00    -0.303 OA
ATOM     25  H   UNL     1      -1.733  63.820  32.474  1.00  0.00     0.223 HD
ENDBRANCH  22  24
BRANCH  22  26
ATOM     26  O   UNL     1      -4.438  63.898  32.728  1.00  0.00    -0.303 OA
ATOM     27  H   UNL     1      -5.238  63.910  32.162  1.00  0.00     0.223 HD
ENDBRANCH  22  26
ENDBRANCH  21  22
ENDBRANCH  20  21
ENDBRANCH   3  20
BRANCH   2  28
ATOM     28  O   UNL     1      -3.828  59.139  34.823  1.00  0.00    -0.387 OA
ATOM     29  H   UNL     1      -3.695  58.202  35.048  1.00  0.00     0.211 HD
ENDBRANCH   2  28
TORSDOF 14
ENDMDL
MODEL 17
REMARK VINA RESULT:    -6.371      3.507      6.426
REMARK INTER + INTRA:         -11.306
REMARK INTER:                  -9.472
REMARK INTRA:                  -1.834
REMARK UNBOUND:                -1.025
REMARK SMILES O=P(O)(O)OC[C@H]1O[C@H](O[P@@](=O)(O)OP(=O)(O)O)[C@H](O)[C@@H]1O
REMARK SMILES IDX 8 1 21 2 7 3 19 4 9 5 10 6 11 7 12 8 14 9 15 10 16 11 17 12
REMARK SMILES IDX 18 14 13 16 20 18 6 20 5 21 2 22 1 23 3 24 4 26 22 28
REMARK H PARENT 17 13 18 15 13 17 20 19 3 25 4 27 22 29
REMARK Flexibility Score: inf
ROOT
ATOM      1  O   UNL     1      -4.354  60.716  37.999  1.00  0.00    -0.341 OA
ATOM      2  C   UNL     1      -2.486  61.292  36.663  1.00  0.00     0.179 C 
ATOM      3  C   UNL     1      -3.208  60.136  37.345  1.00  0.00     0.179 C 
ATOM      4  C   UNL     1      -3.645  62.191  36.291  1.00  0.00     0.202 C 
ATOM      5  C   UNL     1      -4.494  62.077  37.549  1.00  0.00     0.293 C 
ENDROOT
BRANCH   5   6
ATOM      6  O   UNL     1      -5.840  62.434  37.290  1.00  0.00    -0.253 OA
BRANCH   6   7
ATOM      7  P   UNL     1      -6.731  63.132  38.447  1.00  0.00     0.483 P 
ATOM      8  O   UNL     1      -7.390  64.419  38.044  1.00  0.00    -0.228 OA
BRANCH   7   9
ATOM      9  O   UNL     1      -5.725  63.269  39.706  1.00  0.00    -0.185 OA
BRANCH   9  10
ATOM     10  P   UNL     1      -5.588  62.391  41.055  1.00  0.00     0.478 P 
ATOM     11  O   UNL     1      -6.422  62.875  42.204  1.00  0.00    -0.228 OA
BRANCH  10  12
ATOM     12  O   UNL     1      -3.994  62.371  41.320  1.00  0.00    -0.302 OA
ATOM     13  H   UNL     1      -3.385  62.433  40.553  1.00  0.00     0.223 HD
ENDBRANCH  10  12
BRANCH  10  14
ATOM     14  O   UNL     1      -5.906  60.887  40.555  1.00  0.00    -0.302 OA
ATOM     15  H   UNL     1      -5.187  60.220  40.569  1.00  0.00     0.223 HD
ENDBRANCH  10  14
ENDBRANCH   9  10
ENDBRANCH   7   9
BRANCH   7  16
ATOM     16  O   UNL     1      -7.758  61.974  38.918  1.00  0.00    -0.302 OA
ATOM     17  H   UNL     1      -8.560  61.804  38.379  1.00  0.00     0.223 HD
ENDBRANCH   7  16
ENDBRANCH   6   7
ENDBRANCH   5   6
BRANCH   4  18
ATOM     18  O   UNL     1      -4.339  61.640  35.173  1.00  0.00    -0.385 OA
ATOM     19  H   UNL     1      -3.869  61.884  34.358  1.00  0.00     0.211 HD
ENDBRANCH   4  18
BRANCH   3  20
ATOM     20  C   UNL     1      -2.349  59.412  38.366  1.00  0.00     0.208 C 
BRANCH  20  21
ATOM     21  O   UNL     1      -2.608  59.956  39.650  1.00  0.00    -0.284 OA
BRANCH  21  22
ATOM     22  P   UNL     1      -2.972  58.942  40.858  1.00  0.00     0.469 P 
ATOM     23  O   UNL     1      -4.320  58.292  40.755  1.00  0.00    -0.228 OA
BRANCH  22  24
ATOM     24  O   UNL     1      -2.731  59.827  42.188  1.00  0.00    -0.303 OA
ATOM     25  H   UNL     1      -1.814  60.072  42.437  1.00  0.00     0.223 HD
ENDBRANCH  22  24
BRANCH  22  26
ATOM     26  O   UNL     1      -1.719  57.919  40.859  1.00  0.00    -0.303 OA
ATOM     27  H   UNL     1      -1.211  57.792  41.688  1.00  0.00     0.223 HD
ENDBRANCH  22  26
ENDBRANCH  21  22
ENDBRANCH  20  21
ENDBRANCH   3  20
BRANCH   2  28
ATOM     28  O   UNL     1      -1.730  60.861  35.552  1.00  0.00    -0.387 OA
ATOM     29  H   UNL     1      -2.353  60.600  34.854  1.00  0.00     0.211 HD
ENDBRANCH   2  28
TORSDOF 14
ENDMDL
MODEL 18
REMARK VINA RESULT:    -6.342      2.148      3.246
REMARK INTER + INTRA:         -11.259
REMARK INTER:                  -9.331
REMARK INTRA:                  -1.928
REMARK UNBOUND:                -1.025
REMARK SMILES O=P(O)(O)OC[C@H]1O[C@H](O[P@@](=O)(O)OP(=O)(O)O)[C@H](O)[C@@H]1O
REMARK SMILES IDX 8 1 21 2 7 3 19 4 9 5 10 6 11 7 12 8 14 9 15 10 16 11 17 12
REMARK SMILES IDX 18 14 13 16 20 18 6 20 5 21 2 22 1 23 3 24 4 26 22 28
REMARK H PARENT 17 13 18 15 13 17 20 19 3 25 4 27 22 29
REMARK Flexibility Score: inf
ROOT
ATOM      1  O   UNL     1      -4.305  59.800  35.590  1.00  0.00    -0.341 OA
ATOM      2  C   UNL     1      -4.588  57.762  34.418  1.00  0.00     0.179 C 
ATOM      3  C   UNL     1      -3.963  59.150  34.350  1.00  0.00     0.179 C 
ATOM      4  C   UNL     1      -4.491  57.462  35.897  1.00  0.00     0.202 C 
ATOM      5  C   UNL     1      -4.872  58.817  36.477  1.00  0.00     0.293 C 
ENDROOT
BRANCH   5   6
ATOM      6  O   UNL     1      -4.410  58.950  37.810  1.00  0.00    -0.253 OA
BRANCH   6   7
ATOM      7  P   UNL     1      -4.914  60.188  38.722  1.00  0.00     0.483 P 
ATOM      8  O   UNL     1      -6.301  60.674  38.413  1.00  0.00    -0.228 OA
BRANCH   7   9
ATOM      9  O   UNL     1      -3.764  61.313  38.550  1.00  0.00    -0.185 OA
BRANCH   9  10
ATOM     10  P   UNL     1      -3.760  62.709  37.737  1.00  0.00     0.478 P 
ATOM     11  O   UNL     1      -4.121  63.912  38.556  1.00  0.00    -0.228 OA
BRANCH  10  12
ATOM     12  O   UNL     1      -4.736  62.407  36.485  1.00  0.00    -0.302 OA
ATOM     13  H   UNL     1      -5.542  62.955  36.368  1.00  0.00     0.223 HD
ENDBRANCH  10  12
BRANCH  10  14
ATOM     14  O   UNL     1      -2.289  62.745  37.067  1.00  0.00    -0.302 OA
ATOM     15  H   UNL     1      -1.678  61.994  37.223  1.00  0.00     0.223 HD
ENDBRANCH  10  14
ENDBRANCH   9  10
ENDBRANCH   7   9
BRANCH   7  16
ATOM     16  O   UNL     1      -4.709  59.678  40.243  1.00  0.00    -0.302 OA
ATOM     17  H   UNL     1      -4.016  60.098  40.795  1.00  0.00     0.223 HD
ENDBRANCH   7  16
ENDBRANCH   6   7
ENDBRANCH   5   6
BRANCH   4  18
ATOM     18  O   UNL     1      -3.142  57.141  36.233  1.00  0.00    -0.385 OA
ATOM     19  H   UNL     1      -2.793  57.828  36.826  1.00  0.00     0.211 HD
ENDBRANCH   4  18
BRANCH   3  20
ATOM     20  C   UNL     1      -4.467  59.978  33.182  1.00  0.00     0.208 C 
BRANCH  20  21
ATOM     21  O   UNL     1      -4.772  61.284  33.644  1.00  0.00    -0.284 OA
BRANCH  21  22
ATOM     22  P   UNL     1      -3.899  62.525  33.081  1.00  0.00     0.469 P 
ATOM     23  O   UNL     1      -4.653  63.813  32.928  1.00  0.00    -0.228 OA
BRANCH  22  24
ATOM     24  O   UNL     1      -3.237  61.946  31.725  1.00  0.00    -0.303 OA
ATOM     25  H   UNL     1      -2.623  62.516  31.214  1.00  0.00     0.223 HD
ENDBRANCH  22  24
BRANCH  22  26
ATOM     26  O   UNL     1      -2.651  62.583  34.109  1.00  0.00    -0.303 OA
ATOM     27  H   UNL     1      -2.566  61.885  34.792  1.00  0.00     0.223 HD
ENDBRANCH  22  26
ENDBRANCH  21  22
ENDBRANCH  20  21
ENDBRANCH   3  20
BRANCH   2  28
ATOM     28  O   UNL     1      -3.901  56.833  33.609  1.00  0.00    -0.387 OA
ATOM     29  H   UNL     1      -2.982  57.137  33.524  1.00  0.00     0.211 HD
ENDBRANCH   2  28
TORSDOF 14
ENDMDL
MODEL 19
REMARK VINA RESULT:    -6.323      2.545      5.659
REMARK INTER + INTRA:         -11.228
REMARK INTER:                 -10.121
REMARK INTRA:                  -1.108
REMARK UNBOUND:                -1.025
REMARK SMILES O=P(O)(O)OC[C@H]1O[C@H](O[P@@](=O)(O)OP(=O)(O)O)[C@H](O)[C@@H]1O
REMARK SMILES IDX 8 1 21 2 7 3 19 4 9 5 10 6 11 7 12 8 14 9 15 10 16 11 17 12
REMARK SMILES IDX 18 14 13 16 20 18 6 20 5 21 2 22 1 23 3 24 4 26 22 28
REMARK H PARENT 17 13 18 15 13 17 20 19 3 25 4 27 22 29
REMARK Flexibility Score: inf
ROOT
ATOM      1  O   UNL     1      -3.932  59.032  34.538  1.00  0.00    -0.341 OA
ATOM      2  C   UNL     1      -4.347  57.173  35.943  1.00  0.00     0.179 C 
ATOM      3  C   UNL     1      -3.935  57.592  34.537  1.00  0.00     0.179 C 
ATOM      4  C   UNL     1      -3.746  58.284  36.774  1.00  0.00     0.202 C 
ATOM      5  C   UNL     1      -4.069  59.486  35.898  1.00  0.00     0.293 C 
ENDROOT
BRANCH   5   6
ATOM      6  O   UNL     1      -3.221  60.580  36.200  1.00  0.00    -0.253 OA
BRANCH   6   7
ATOM      7  P   UNL     1      -3.610  62.069  35.698  1.00  0.00     0.483 P 
ATOM      8  O   UNL     1      -5.077  62.386  35.745  1.00  0.00    -0.228 OA
BRANCH   7   9
ATOM      9  O   UNL     1      -2.954  62.185  34.225  1.00  0.00    -0.185 OA
BRANCH   9  10
ATOM     10  P   UNL     1      -3.383  63.064  32.939  1.00  0.00     0.478 P 
ATOM     11  O   UNL     1      -2.474  64.219  32.638  1.00  0.00    -0.228 OA
BRANCH  10  12
ATOM     12  O   UNL     1      -4.917  63.458  33.260  1.00  0.00    -0.302 OA
ATOM     13  H   UNL     1      -5.273  63.287  34.158  1.00  0.00     0.223 HD
ENDBRANCH  10  12
BRANCH  10  14
ATOM     14  O   UNL     1      -3.514  61.964  31.762  1.00  0.00    -0.302 OA
ATOM     15  H   UNL     1      -2.761  61.834  31.147  1.00  0.00     0.223 HD
ENDBRANCH  10  14
ENDBRANCH   9  10
ENDBRANCH   7   9
BRANCH   7  16
ATOM     16  O   UNL     1      -2.686  63.050  36.593  1.00  0.00    -0.302 OA
ATOM     17  H   UNL     1      -1.742  62.821  36.727  1.00  0.00     0.223 HD
ENDBRANCH   7  16
ENDBRANCH   6   7
ENDBRANCH   5   6
BRANCH   4  18
ATOM     18  O   UNL     1      -2.334  58.104  36.866  1.00  0.00    -0.385 OA
ATOM     19  H   UNL     1      -2.151  57.306  37.390  1.00  0.00     0.211 HD
ENDBRANCH   4  18
BRANCH   3  20
ATOM     20  C   UNL     1      -4.878  57.084  33.460  1.00  0.00     0.208 C 
BRANCH  20  21
ATOM     21  O   UNL     1      -6.105  56.711  34.065  1.00  0.00    -0.284 OA
BRANCH  21  22
ATOM     22  P   UNL     1      -7.369  57.712  33.925  1.00  0.00     0.469 P 
ATOM     23  O   UNL     1      -7.606  58.604  35.108  1.00  0.00    -0.228 OA
BRANCH  22  24
ATOM     24  O   UNL     1      -8.595  56.732  33.541  1.00  0.00    -0.303 OA
ATOM     25  H   UNL     1      -8.611  55.823  33.910  1.00  0.00     0.223 HD
ENDBRANCH  22  24
BRANCH  22  26
ATOM     26  O   UNL     1      -7.063  58.487  32.538  1.00  0.00    -0.303 OA
ATOM     27  H   UNL     1      -6.572  59.335  32.567  1.00  0.00     0.223 HD
ENDBRANCH  22  26
ENDBRANCH  21  22
ENDBRANCH  20  21
ENDBRANCH   3  20
BRANCH   2  28
ATOM     28  O   UNL     1      -3.857  55.893  36.277  1.00  0.00    -0.387 OA
ATOM     29  H   UNL     1      -3.555  55.923  37.201  1.00  0.00     0.211 HD
ENDBRANCH   2  28
TORSDOF 14
ENDMDL
MODEL 20
REMARK VINA RESULT:    -6.269      3.033      6.970
REMARK INTER + INTRA:         -11.141
REMARK INTER:                  -9.874
REMARK INTRA:                  -1.267
REMARK UNBOUND:                -1.025
REMARK SMILES O=P(O)(O)OC[C@H]1O[C@H](O[P@@](=O)(O)OP(=O)(O)O)[C@H](O)[C@@H]1O
REMARK SMILES IDX 8 1 21 2 7 3 19 4 9 5 10 6 11 7 12 8 14 9 15 10 16 11 17 12
REMARK SMILES IDX 18 14 13 16 20 18 6 20 5 21 2 22 1 23 3 24 4 26 22 28
REMARK H PARENT 17 13 18 15 13 17 20 19 3 25 4 27 22 29
REMARK Flexibility Score: inf
ROOT
ATOM      1  O   UNL     1      -4.908  60.334  38.879  1.00  0.00    -0.341 OA
ATOM      2  C   UNL     1      -3.080  59.419  40.073  1.00  0.00     0.179 C 
ATOM      3  C   UNL     1      -4.601  59.473  39.994  1.00  0.00     0.179 C 
ATOM      4  C   UNL     1      -2.699  59.530  38.613  1.00  0.00     0.202 C 
ATOM      5  C   UNL     1      -3.691  60.589  38.152  1.00  0.00     0.293 C 
ENDROOT
BRANCH   5   6
ATOM      6  O   UNL     1      -3.871  60.542  36.748  1.00  0.00    -0.253 OA
BRANCH   6   7
ATOM      7  P   UNL     1      -3.065  61.571  35.793  1.00  0.00     0.483 P 
ATOM      8  O   UNL     1      -2.906  62.956  36.352  1.00  0.00    -0.228 OA
BRANCH   7   9
ATOM      9  O   UNL     1      -3.849  61.513  34.380  1.00  0.00    -0.185 OA
BRANCH   9  10
ATOM     10  P   UNL     1      -3.644  62.356  33.018  1.00  0.00     0.478 P 
ATOM     11  O   UNL     1      -3.857  61.572  31.757  1.00  0.00    -0.228 OA
BRANCH  10  12
ATOM     12  O   UNL     1      -2.166  62.987  33.197  1.00  0.00    -0.302 OA
ATOM     13  H   UNL     1      -1.397  62.382  33.263  1.00  0.00     0.223 HD
ENDBRANCH  10  12
BRANCH  10  14
ATOM     14  O   UNL     1      -4.622  63.628  33.215  1.00  0.00    -0.302 OA
ATOM     15  H   UNL     1      -5.230  63.644  33.985  1.00  0.00     0.223 HD
ENDBRANCH  10  14
ENDBRANCH   9  10
ENDBRANCH   7   9
BRANCH   7  16
ATOM     16  O   UNL     1      -1.670  60.816  35.475  1.00  0.00    -0.302 OA
ATOM     17  H   UNL     1      -1.568  59.877  35.739  1.00  0.00     0.223 HD
ENDBRANCH   7  16
ENDBRANCH   6   7
ENDBRANCH   5   6
BRANCH   4  18
ATOM     18  O   UNL     1      -2.956  58.291  37.955  1.00  0.00    -0.385 OA
ATOM     19  H   UNL     1      -3.520  57.742  38.526  1.00  0.00     0.211 HD
ENDBRANCH   4  18
BRANCH   3  20
ATOM     20  C   UNL     1      -5.248  60.018  41.254  1.00  0.00     0.208 C 
BRANCH  20  21
ATOM     21  O   UNL     1      -4.479  61.111  41.728  1.00  0.00    -0.284 OA
BRANCH  21  22
ATOM     22  P   UNL     1      -5.156  62.582  41.741  1.00  0.00     0.469 P 
ATOM     23  O   UNL     1      -5.705  63.015  43.068  1.00  0.00    -0.228 OA
BRANCH  22  24
ATOM     24  O   UNL     1      -6.229  62.521  40.534  1.00  0.00    -0.303 OA
ATOM     25  H   UNL     1      -7.178  62.671  40.734  1.00  0.00     0.223 HD
ENDBRANCH  22  24
BRANCH  22  26
ATOM     26  O   UNL     1      -3.982  63.523  41.148  1.00  0.00    -0.303 OA
ATOM     27  H   UNL     1      -3.056  63.202  41.176  1.00  0.00     0.223 HD
ENDBRANCH  22  26
ENDBRANCH  21  22
ENDBRANCH  20  21
ENDBRANCH   3  20
BRANCH   2  28
ATOM     28  O   UNL     1      -2.625  58.231  40.684  1.00  0.00    -0.387 OA
ATOM     29  H   UNL     1      -1.667  58.320  40.826  1.00  0.00     0.211 HD
ENDBRANCH   2  28
TORSDOF 14
ENDMDL
