MODEL 1
REMARK VINA RESULT:    -7.159      0.000      0.000
REMARK INTER + INTRA:         -12.585
REMARK INTER:                 -11.553
REMARK INTRA:                  -1.032
REMARK UNBOUND:                -1.032
REMARK SMILES O=P(O)(O)OC[C@H]1O[C@H](O[P@@](=O)(O)OP(=O)(O)O)[C@H](O)[C@@H]1O
REMARK SMILES IDX 8 1 21 2 7 3 19 4 9 5 10 6 11 7 12 8 14 9 15 10 16 11 17 12
REMARK SMILES IDX 18 14 13 16 20 18 6 20 5 21 2 22 1 23 3 24 4 26 22 28
REMARK H PARENT 17 13 18 15 13 17 20 19 3 25 4 27 22 29
REMARK Flexibility Score: inf
ROOT
ATOM      1  O   UNL     1      -3.377  59.336  34.884  1.00  0.00    -0.341 OA
ATOM      2  C   UNL     1      -5.194  57.931  34.310  1.00  0.00     0.179 C 
ATOM      3  C   UNL     1      -4.221  58.974  33.773  1.00  0.00     0.179 C 
ATOM      4  C   UNL     1      -4.337  57.222  35.335  1.00  0.00     0.202 C 
ATOM      5  C   UNL     1      -3.619  58.410  35.960  1.00  0.00     0.293 C 
ENDROOT
BRANCH   5   6
ATOM      6  O   UNL     1      -2.429  58.002  36.611  1.00  0.00    -0.253 OA
BRANCH   6   7
ATOM      7  P   UNL     1      -1.689  59.002  37.647  1.00  0.00     0.483 P 
ATOM      8  O   UNL     1      -0.346  58.531  38.125  1.00  0.00    -0.228 OA
BRANCH   7   9
ATOM      9  O   UNL     1      -2.769  59.234  38.828  1.00  0.00    -0.185 OA
BRANCH   9  10
ATOM     10  P   UNL     1      -2.658  59.010  40.424  1.00  0.00     0.478 P 
ATOM     11  O   UNL     1      -2.541  60.272  41.227  1.00  0.00    -0.228 OA
BRANCH  10  12
ATOM     12  O   UNL     1      -1.417  57.985  40.566  1.00  0.00    -0.302 OA
ATOM     13  H   UNL     1      -0.720  58.172  41.230  1.00  0.00     0.223 HD
ENDBRANCH  10  12
BRANCH  10  14
ATOM     14  O   UNL     1      -3.946  58.093  40.762  1.00  0.00    -0.302 OA
ATOM     15  H   UNL     1      -4.769  58.220  40.243  1.00  0.00     0.223 HD
ENDBRANCH  10  14
ENDBRANCH   9  10
ENDBRANCH   7   9
BRANCH   7  16
ATOM     16  O   UNL     1      -1.663  60.427  36.882  1.00  0.00    -0.302 OA
ATOM     17  H   UNL     1      -2.479  60.742  36.437  1.00  0.00     0.223 HD
ENDBRANCH   7  16
ENDBRANCH   6   7
ENDBRANCH   5   6
BRANCH   4  18
ATOM     18  O   UNL     1      -3.403  56.372  34.673  1.00  0.00    -0.385 OA
ATOM     19  H   UNL     1      -2.579  56.865  34.522  1.00  0.00     0.211 HD
ENDBRANCH   4  18
BRANCH   3  20
ATOM     20  C   UNL     1      -4.911  60.214  33.230  1.00  0.00     0.208 C 
BRANCH  20  21
ATOM     21  O   UNL     1      -4.341  61.359  33.841  1.00  0.00    -0.284 OA
BRANCH  21  22
ATOM     22  P   UNL     1      -3.706  62.505  32.891  1.00  0.00     0.469 P 
ATOM     23  O   UNL     1      -4.544  63.742  32.743  1.00  0.00    -0.228 OA
BRANCH  22  24
ATOM     24  O   UNL     1      -3.377  61.724  31.514  1.00  0.00    -0.303 OA
ATOM     25  H   UNL     1      -4.072  61.663  30.824  1.00  0.00     0.223 HD
ENDBRANCH  22  24
BRANCH  22  26
ATOM     26  O   UNL     1      -2.245  62.745  33.542  1.00  0.00    -0.303 OA
ATOM     27  H   UNL     1      -1.502  63.006  32.957  1.00  0.00     0.223 HD
ENDBRANCH  22  26
ENDBRANCH  21  22
ENDBRANCH  20  21
ENDBRANCH   3  20
BRANCH   2  28
ATOM     28  O   UNL     1      -5.671  57.080  33.290  1.00  0.00    -0.387 OA
ATOM     29  H   UNL     1      -5.425  56.170  33.526  1.00  0.00     0.211 HD
ENDBRANCH   2  28
TORSDOF 14
ENDMDL
MODEL 2
REMARK VINA RESULT:    -7.066      1.493      2.130
REMARK INTER + INTRA:         -12.435
REMARK INTER:                 -10.216
REMARK INTRA:                  -2.219
REMARK UNBOUND:                -1.032
REMARK SMILES O=P(O)(O)OC[C@H]1O[C@H](O[P@@](=O)(O)OP(=O)(O)O)[C@H](O)[C@@H]1O
REMARK SMILES IDX 8 1 21 2 7 3 19 4 9 5 10 6 11 7 12 8 14 9 15 10 16 11 17 12
REMARK SMILES IDX 18 14 13 16 20 18 6 20 5 21 2 22 1 23 3 24 4 26 22 28
REMARK H PARENT 17 13 18 15 13 17 20 19 3 25 4 27 22 29
REMARK Flexibility Score: inf
ROOT
ATOM      1  O   UNL     1      -3.663  59.363  34.856  1.00  0.00    -0.341 OA
ATOM      2  C   UNL     1      -5.301  57.763  34.254  1.00  0.00     0.179 C 
ATOM      3  C   UNL     1      -4.438  58.905  33.731  1.00  0.00     0.179 C 
ATOM      4  C   UNL     1      -4.393  57.158  35.302  1.00  0.00     0.202 C 
ATOM      5  C   UNL     1      -3.825  58.421  35.934  1.00  0.00     0.293 C 
ENDROOT
BRANCH   5   6
ATOM      6  O   UNL     1      -2.611  58.151  36.612  1.00  0.00    -0.253 OA
BRANCH   6   7
ATOM      7  P   UNL     1      -1.699  59.371  37.159  1.00  0.00     0.483 P 
ATOM      8  O   UNL     1      -0.422  58.952  37.829  1.00  0.00    -0.228 OA
BRANCH   7   9
ATOM      9  O   UNL     1      -2.693  60.228  38.104  1.00  0.00    -0.185 OA
BRANCH   9  10
ATOM     10  P   UNL     1      -3.202  61.757  37.996  1.00  0.00     0.478 P 
ATOM     11  O   UNL     1      -3.876  62.282  39.230  1.00  0.00    -0.228 OA
BRANCH  10  12
ATOM     12  O   UNL     1      -4.115  61.747  36.663  1.00  0.00    -0.302 OA
ATOM     13  H   UNL     1      -3.675  61.718  35.786  1.00  0.00     0.223 HD
ENDBRANCH  10  12
BRANCH  10  14
ATOM     14  O   UNL     1      -1.876  62.561  37.539  1.00  0.00    -0.302 OA
ATOM     15  H   UNL     1      -1.809  63.519  37.735  1.00  0.00     0.223 HD
ENDBRANCH  10  14
ENDBRANCH   9  10
ENDBRANCH   7   9
BRANCH   7  16
ATOM     16  O   UNL     1      -1.494  60.329  35.871  1.00  0.00    -0.302 OA
ATOM     17  H   UNL     1      -0.606  60.384  35.458  1.00  0.00     0.223 HD
ENDBRANCH   7  16
ENDBRANCH   6   7
ENDBRANCH   5   6
BRANCH   4  18
ATOM     18  O   UNL     1      -3.356  56.413  34.666  1.00  0.00    -0.385 OA
ATOM     19  H   UNL     1      -2.713  57.033  34.283  1.00  0.00     0.211 HD
ENDBRANCH   4  18
BRANCH   3  20
ATOM     20  C   UNL     1      -5.248  60.058  33.164  1.00  0.00     0.208 C 
BRANCH  20  21
ATOM     21  O   UNL     1      -4.922  61.240  33.876  1.00  0.00    -0.284 OA
BRANCH  21  22
ATOM     22  P   UNL     1      -4.012  62.358  33.139  1.00  0.00     0.469 P 
ATOM     23  O   UNL     1      -4.657  63.705  32.995  1.00  0.00    -0.228 OA
BRANCH  22  24
ATOM     24  O   UNL     1      -3.578  61.647  31.754  1.00  0.00    -0.303 OA
ATOM     25  H   UNL     1      -2.861  60.977  31.767  1.00  0.00     0.223 HD
ENDBRANCH  22  24
BRANCH  22  26
ATOM     26  O   UNL     1      -2.649  62.343  34.009  1.00  0.00    -0.303 OA
ATOM     27  H   UNL     1      -2.001  63.069  33.888  1.00  0.00     0.223 HD
ENDBRANCH  22  26
ENDBRANCH  21  22
ENDBRANCH  20  21
ENDBRANCH   3  20
BRANCH   2  28
ATOM     28  O   UNL     1      -5.658  56.860  33.231  1.00  0.00    -0.387 OA
ATOM     29  H   UNL     1      -6.473  57.190  32.816  1.00  0.00     0.211 HD
ENDBRANCH   2  28
TORSDOF 14
ENDMDL
MODEL 3
REMARK VINA RESULT:    -6.955      3.301      7.794
REMARK INTER + INTRA:         -12.256
REMARK INTER:                 -11.131
REMARK INTRA:                  -1.125
REMARK UNBOUND:                -1.032
REMARK SMILES O=P(O)(O)OC[C@H]1O[C@H](O[P@@](=O)(O)OP(=O)(O)O)[C@H](O)[C@@H]1O
REMARK SMILES IDX 8 1 21 2 7 3 19 4 9 5 10 6 11 7 12 8 14 9 15 10 16 11 17 12
REMARK SMILES IDX 18 14 13 16 20 18 6 20 5 21 2 22 1 23 3 24 4 26 22 28
REMARK H PARENT 17 13 18 15 13 17 20 19 3 25 4 27 22 29
REMARK Flexibility Score: inf
ROOT
ATOM      1  O   UNL     1      -2.960  61.907  38.770  1.00  0.00    -0.341 OA
ATOM      2  C   UNL     1      -4.698  62.585  40.227  1.00  0.00     0.179 C 
ATOM      3  C   UNL     1      -3.202  62.308  40.132  1.00  0.00     0.179 C 
ATOM      4  C   UNL     1      -4.993  63.113  38.841  1.00  0.00     0.202 C 
ATOM      5  C   UNL     1      -4.151  62.163  38.001  1.00  0.00     0.293 C 
ENDROOT
BRANCH   5   6
ATOM      6  O   UNL     1      -3.873  62.718  36.727  1.00  0.00    -0.253 OA
BRANCH   6   7
ATOM      7  P   UNL     1      -4.128  61.844  35.390  1.00  0.00     0.483 P 
ATOM      8  O   UNL     1      -3.919  60.366  35.554  1.00  0.00    -0.228 OA
BRANCH   7   9
ATOM      9  O   UNL     1      -3.180  62.526  34.272  1.00  0.00    -0.185 OA
BRANCH   9  10
ATOM     10  P   UNL     1      -3.529  63.154  32.825  1.00  0.00     0.478 P 
ATOM     11  O   UNL     1      -4.928  63.680  32.692  1.00  0.00    -0.228 OA
BRANCH  10  12
ATOM     12  O   UNL     1      -3.140  61.963  31.804  1.00  0.00    -0.302 OA
ATOM     13  H   UNL     1      -3.806  61.271  31.606  1.00  0.00     0.223 HD
ENDBRANCH  10  12
BRANCH  10  14
ATOM     14  O   UNL     1      -2.357  64.244  32.598  1.00  0.00    -0.302 OA
ATOM     15  H   UNL     1      -1.466  63.933  32.329  1.00  0.00     0.223 HD
ENDBRANCH  10  14
ENDBRANCH   9  10
ENDBRANCH   7   9
BRANCH   7  16
ATOM     16  O   UNL     1      -5.618  62.258  34.916  1.00  0.00    -0.302 OA
ATOM     17  H   UNL     1      -5.858  63.209  34.883  1.00  0.00     0.223 HD
ENDBRANCH   7  16
ENDBRANCH   6   7
ENDBRANCH   5   6
BRANCH   4  18
ATOM     18  O   UNL     1      -4.502  64.447  38.722  1.00  0.00    -0.385 OA
ATOM     19  H   UNL     1      -4.386  64.821  39.611  1.00  0.00     0.211 HD
ENDBRANCH   4  18
BRANCH   3  20
ATOM     20  C   UNL     1      -2.733  61.217  41.078  1.00  0.00     0.208 C 
BRANCH  20  21
ATOM     21  O   UNL     1      -3.795  60.300  41.281  1.00  0.00    -0.284 OA
BRANCH  21  22
ATOM     22  P   UNL     1      -3.607  58.777  40.766  1.00  0.00     0.469 P 
ATOM     23  O   UNL     1      -4.777  57.872  41.021  1.00  0.00    -0.228 OA
BRANCH  22  24
ATOM     24  O   UNL     1      -2.215  58.312  41.442  1.00  0.00    -0.303 OA
ATOM     25  H   UNL     1      -1.372  58.668  41.087  1.00  0.00     0.223 HD
ENDBRANCH  22  24
BRANCH  22  26
ATOM     26  O   UNL     1      -3.220  58.968  39.208  1.00  0.00    -0.303 OA
ATOM     27  H   UNL     1      -2.322  58.712  38.907  1.00  0.00     0.223 HD
ENDBRANCH  22  26
ENDBRANCH  21  22
ENDBRANCH  20  21
ENDBRANCH   3  20
BRANCH   2  28
ATOM     28  O   UNL     1      -5.001  63.503  41.255  1.00  0.00    -0.387 OA
ATOM     29  H   UNL     1      -4.980  64.395  40.870  1.00  0.00     0.211 HD
ENDBRANCH   2  28
TORSDOF 14
ENDMDL
MODEL 4
REMARK VINA RESULT:    -6.901      2.704      4.096
REMARK INTER + INTRA:         -12.170
REMARK INTER:                 -10.844
REMARK INTRA:                  -1.326
REMARK UNBOUND:                -1.032
REMARK SMILES O=P(O)(O)OC[C@H]1O[C@H](O[P@@](=O)(O)OP(=O)(O)O)[C@H](O)[C@@H]1O
REMARK SMILES IDX 8 1 21 2 7 3 19 4 9 5 10 6 11 7 12 8 14 9 15 10 16 11 17 12
REMARK SMILES IDX 18 14 13 16 20 18 6 20 5 21 2 22 1 23 3 24 4 26 22 28
REMARK H PARENT 17 13 18 15 13 17 20 19 3 25 4 27 22 29
REMARK Flexibility Score: inf
ROOT
ATOM      1  O   UNL     1      -4.651  62.494  37.116  1.00  0.00    -0.341 OA
ATOM      2  C   UNL     1      -2.950  61.040  36.345  1.00  0.00     0.179 C 
ATOM      3  C   UNL     1      -3.925  62.133  35.925  1.00  0.00     0.179 C 
ATOM      4  C   UNL     1      -2.627  61.455  37.763  1.00  0.00     0.202 C 
ATOM      5  C   UNL     1      -4.009  61.873  38.246  1.00  0.00     0.293 C 
ENDROOT
BRANCH   5   6
ATOM      6  O   UNL     1      -3.918  62.735  39.367  1.00  0.00    -0.253 OA
BRANCH   6   7
ATOM      7  P   UNL     1      -4.434  62.235  40.817  1.00  0.00     0.483 P 
ATOM      8  O   UNL     1      -4.525  63.312  41.859  1.00  0.00    -0.228 OA
BRANCH   7   9
ATOM      9  O   UNL     1      -3.438  61.022  41.205  1.00  0.00    -0.185 OA
BRANCH   9  10
ATOM     10  P   UNL     1      -3.687  59.427  41.279  1.00  0.00     0.478 P 
ATOM     11  O   UNL     1      -4.275  58.827  40.036  1.00  0.00    -0.228 OA
BRANCH  10  12
ATOM     12  O   UNL     1      -4.580  59.257  42.616  1.00  0.00    -0.302 OA
ATOM     13  H   UNL     1      -4.130  59.238  43.487  1.00  0.00     0.223 HD
ENDBRANCH  10  12
BRANCH  10  14
ATOM     14  O   UNL     1      -2.244  58.843  41.713  1.00  0.00    -0.302 OA
ATOM     15  H   UNL     1      -2.180  57.914  42.019  1.00  0.00     0.223 HD
ENDBRANCH  10  14
ENDBRANCH   9  10
ENDBRANCH   7   9
BRANCH   7  16
ATOM     16  O   UNL     1      -5.833  61.483  40.510  1.00  0.00    -0.302 OA
ATOM     17  H   UNL     1      -6.587  61.616  41.123  1.00  0.00     0.223 HD
ENDBRANCH   7  16
ENDBRANCH   6   7
ENDBRANCH   5   6
BRANCH   4  18
ATOM     18  O   UNL     1      -1.748  62.577  37.746  1.00  0.00    -0.385 OA
ATOM     19  H   UNL     1      -2.108  63.251  37.146  1.00  0.00     0.211 HD
ENDBRANCH   4  18
BRANCH   3  20
ATOM     20  C   UNL     1      -4.898  61.687  34.848  1.00  0.00     0.208 C 
BRANCH  20  21
ATOM     21  O   UNL     1      -4.169  61.383  33.670  1.00  0.00    -0.284 OA
BRANCH  21  22
ATOM     22  P   UNL     1      -3.661  62.607  32.741  1.00  0.00     0.469 P 
ATOM     23  O   UNL     1      -4.600  63.776  32.662  1.00  0.00    -0.228 OA
BRANCH  22  24
ATOM     24  O   UNL     1      -3.317  61.901  31.329  1.00  0.00    -0.303 OA
ATOM     25  H   UNL     1      -2.402  61.960  30.978  1.00  0.00     0.223 HD
ENDBRANCH  22  24
BRANCH  22  26
ATOM     26  O   UNL     1      -2.203  62.944  33.355  1.00  0.00    -0.303 OA
ATOM     27  H   UNL     1      -2.072  62.886  34.325  1.00  0.00     0.223 HD
ENDBRANCH  22  26
ENDBRANCH  21  22
ENDBRANCH  20  21
ENDBRANCH   3  20
BRANCH   2  28
ATOM     28  O   UNL     1      -1.819  60.990  35.503  1.00  0.00    -0.387 OA
ATOM     29  H   UNL     1      -2.120  61.148  34.593  1.00  0.00     0.211 HD
ENDBRANCH   2  28
TORSDOF 14
ENDMDL
MODEL 5
REMARK VINA RESULT:    -6.750      2.137      7.034
REMARK INTER + INTRA:         -11.925
REMARK INTER:                 -10.604
REMARK INTRA:                  -1.321
REMARK UNBOUND:                -1.032
REMARK SMILES O=P(O)(O)OC[C@H]1O[C@H](O[P@@](=O)(O)OP(=O)(O)O)[C@H](O)[C@@H]1O
REMARK SMILES IDX 8 1 21 2 7 3 19 4 9 5 10 6 11 7 12 8 14 9 15 10 16 11 17 12
REMARK SMILES IDX 18 14 13 16 20 18 6 20 5 21 2 22 1 23 3 24 4 26 22 28
REMARK H PARENT 17 13 18 15 13 17 20 19 3 25 4 27 22 29
REMARK Flexibility Score: inf
ROOT
ATOM      1  O   UNL     1      -4.300  59.923  37.131  1.00  0.00    -0.341 OA
ATOM      2  C   UNL     1      -2.352  59.212  38.273  1.00  0.00     0.179 C 
ATOM      3  C   UNL     1      -3.854  59.430  38.409  1.00  0.00     0.179 C 
ATOM      4  C   UNL     1      -2.239  58.804  36.820  1.00  0.00     0.202 C 
ATOM      5  C   UNL     1      -3.223  59.778  36.186  1.00  0.00     0.293 C 
ENDROOT
BRANCH   5   6
ATOM      6  O   UNL     1      -3.661  59.310  34.923  1.00  0.00    -0.253 OA
BRANCH   6   7
ATOM      7  P   UNL     1      -4.679  60.203  34.036  1.00  0.00     0.483 P 
ATOM      8  O   UNL     1      -4.951  59.669  32.660  1.00  0.00    -0.228 OA
BRANCH   7   9
ATOM      9  O   UNL     1      -4.038  61.688  34.056  1.00  0.00    -0.185 OA
BRANCH   9  10
ATOM     10  P   UNL     1      -3.640  62.687  32.851  1.00  0.00     0.478 P 
ATOM     11  O   UNL     1      -4.592  63.826  32.641  1.00  0.00    -0.228 OA
BRANCH  10  12
ATOM     12  O   UNL     1      -3.467  61.690  31.590  1.00  0.00    -0.302 OA
ATOM     13  H   UNL     1      -3.058  60.810  31.734  1.00  0.00     0.223 HD
ENDBRANCH  10  12
BRANCH  10  14
ATOM     14  O   UNL     1      -2.121  63.112  33.205  1.00  0.00    -0.302 OA
ATOM     15  H   UNL     1      -1.412  62.437  33.143  1.00  0.00     0.223 HD
ENDBRANCH  10  14
ENDBRANCH   9  10
ENDBRANCH   7   9
BRANCH   7  16
ATOM     16  O   UNL     1      -5.995  60.355  34.965  1.00  0.00    -0.302 OA
ATOM     17  H   UNL     1      -6.246  61.246  35.290  1.00  0.00     0.223 HD
ENDBRANCH   7  16
ENDBRANCH   6   7
ENDBRANCH   5   6
BRANCH   4  18
ATOM     18  O   UNL     1      -2.699  57.463  36.662  1.00  0.00    -0.385 OA
ATOM     19  H   UNL     1      -2.275  56.903  37.334  1.00  0.00     0.211 HD
ENDBRANCH   4  18
BRANCH   3  20
ATOM     20  C   UNL     1      -4.219  60.424  39.497  1.00  0.00     0.208 C 
BRANCH  20  21
ATOM     21  O   UNL     1      -4.423  59.721  40.711  1.00  0.00    -0.284 OA
BRANCH  21  22
ATOM     22  P   UNL     1      -3.429  60.021  41.953  1.00  0.00     0.469 P 
ATOM     23  O   UNL     1      -4.101  60.130  43.291  1.00  0.00    -0.228 OA
BRANCH  22  24
ATOM     24  O   UNL     1      -2.611  61.333  41.482  1.00  0.00    -0.303 OA
ATOM     25  H   UNL     1      -1.877  61.230  40.838  1.00  0.00     0.223 HD
ENDBRANCH  22  24
BRANCH  22  26
ATOM     26  O   UNL     1      -2.335  58.836  41.833  1.00  0.00    -0.303 OA
ATOM     27  H   UNL     1      -2.424  58.048  42.410  1.00  0.00     0.223 HD
ENDBRANCH  22  26
ENDBRANCH  21  22
ENDBRANCH  20  21
ENDBRANCH   3  20
BRANCH   2  28
ATOM     28  O   UNL     1      -1.876  58.233  39.170  1.00  0.00    -0.387 OA
ATOM     29  H   UNL     1      -2.602  58.011  39.778  1.00  0.00     0.211 HD
ENDBRANCH   2  28
TORSDOF 14
ENDMDL
MODEL 6
REMARK VINA RESULT:    -6.741      1.882      3.199
REMARK INTER + INTRA:         -11.910
REMARK INTER:                 -10.292
REMARK INTRA:                  -1.619
REMARK UNBOUND:                -1.032
REMARK SMILES O=P(O)(O)OC[C@H]1O[C@H](O[P@@](=O)(O)OP(=O)(O)O)[C@H](O)[C@@H]1O
REMARK SMILES IDX 8 1 21 2 7 3 19 4 9 5 10 6 11 7 12 8 14 9 15 10 16 11 17 12
REMARK SMILES IDX 18 14 13 16 20 18 6 20 5 21 2 22 1 23 3 24 4 26 22 28
REMARK H PARENT 17 13 18 15 13 17 20 19 3 25 4 27 22 29
REMARK Flexibility Score: inf
ROOT
ATOM      1  O   UNL     1      -2.932  60.966  37.606  1.00  0.00    -0.341 OA
ATOM      2  C   UNL     1      -3.700  59.606  35.827  1.00  0.00     0.179 C 
ATOM      3  C   UNL     1      -2.847  60.820  36.175  1.00  0.00     0.179 C 
ATOM      4  C   UNL     1      -3.498  58.738  37.049  1.00  0.00     0.202 C 
ATOM      5  C   UNL     1      -3.566  59.790  38.146  1.00  0.00     0.293 C 
ENDROOT
BRANCH   5   6
ATOM      6  O   UNL     1      -2.946  59.330  39.334  1.00  0.00    -0.253 OA
BRANCH   6   7
ATOM      7  P   UNL     1      -3.819  59.145  40.684  1.00  0.00     0.483 P 
ATOM      8  O   UNL     1      -4.642  57.890  40.735  1.00  0.00    -0.228 OA
BRANCH   7   9
ATOM      9  O   UNL     1      -4.682  60.508  40.799  1.00  0.00    -0.185 OA
BRANCH   9  10
ATOM     10  P   UNL     1      -4.235  62.020  41.151  1.00  0.00     0.478 P 
ATOM     11  O   UNL     1      -5.165  63.082  40.646  1.00  0.00    -0.228 OA
BRANCH  10  12
ATOM     12  O   UNL     1      -2.724  62.097  40.581  1.00  0.00    -0.302 OA
ATOM     13  H   UNL     1      -1.979  61.866  41.176  1.00  0.00     0.223 HD
ENDBRANCH  10  12
BRANCH  10  14
ATOM     14  O   UNL     1      -4.031  61.984  42.754  1.00  0.00    -0.302 OA
ATOM     15  H   UNL     1      -4.821  62.018  43.334  1.00  0.00     0.223 HD
ENDBRANCH  10  14
ENDBRANCH   9  10
ENDBRANCH   7   9
BRANCH   7  16
ATOM     16  O   UNL     1      -2.742  59.286  41.883  1.00  0.00    -0.302 OA
ATOM     17  H   UNL     1      -2.500  58.488  42.400  1.00  0.00     0.223 HD
ENDBRANCH   7  16
ENDBRANCH   6   7
ENDBRANCH   5   6
BRANCH   4  18
ATOM     18  O   UNL     1      -2.200  58.148  37.008  1.00  0.00    -0.385 OA
ATOM     19  H   UNL     1      -2.096  57.562  37.777  1.00  0.00     0.211 HD
ENDBRANCH   4  18
BRANCH   3  20
ATOM     20  C   UNL     1      -3.319  62.097  35.502  1.00  0.00     0.208 C 
BRANCH  20  21
ATOM     21  O   UNL     1      -3.946  61.763  34.275  1.00  0.00    -0.284 OA
BRANCH  21  22
ATOM     22  P   UNL     1      -3.586  62.638  32.962  1.00  0.00     0.469 P 
ATOM     23  O   UNL     1      -4.482  63.818  32.721  1.00  0.00    -0.228 OA
BRANCH  22  24
ATOM     24  O   UNL     1      -3.546  61.546  31.771  1.00  0.00    -0.303 OA
ATOM     25  H   UNL     1      -3.774  61.828  30.860  1.00  0.00     0.223 HD
ENDBRANCH  22  24
BRANCH  22  26
ATOM     26  O   UNL     1      -2.026  63.001  33.188  1.00  0.00    -0.303 OA
ATOM     27  H   UNL     1      -1.736  63.324  34.067  1.00  0.00     0.223 HD
ENDBRANCH  22  26
ENDBRANCH  21  22
ENDBRANCH  20  21
ENDBRANCH   3  20
BRANCH   2  28
ATOM     28  O   UNL     1      -3.281  58.994  34.627  1.00  0.00    -0.387 OA
ATOM     29  H   UNL     1      -3.903  58.272  34.430  1.00  0.00     0.211 HD
ENDBRANCH   2  28
TORSDOF 14
ENDMDL
MODEL 7
REMARK VINA RESULT:    -6.737      2.733      6.515
REMARK INTER + INTRA:         -11.903
REMARK INTER:                 -10.210
REMARK INTRA:                  -1.693
REMARK UNBOUND:                -1.032
REMARK SMILES O=P(O)(O)OC[C@H]1O[C@H](O[P@@](=O)(O)OP(=O)(O)O)[C@H](O)[C@@H]1O
REMARK SMILES IDX 8 1 21 2 7 3 19 4 9 5 10 6 11 7 12 8 14 9 15 10 16 11 17 12
REMARK SMILES IDX 18 14 13 16 20 18 6 20 5 21 2 22 1 23 3 24 4 26 22 28
REMARK H PARENT 17 13 18 15 13 17 20 19 3 25 4 27 22 29
REMARK Flexibility Score: inf
ROOT
ATOM      1  O   UNL     1      -3.252  60.582  38.165  1.00  0.00    -0.341 OA
ATOM      2  C   UNL     1      -1.591  59.083  38.937  1.00  0.00     0.179 C 
ATOM      3  C   UNL     1      -2.945  59.701  39.262  1.00  0.00     0.179 C 
ATOM      4  C   UNL     1      -1.654  59.002  37.427  1.00  0.00     0.202 C 
ATOM      5  C   UNL     1      -2.302  60.342  37.109  1.00  0.00     0.293 C 
ENDROOT
BRANCH   5   6
ATOM      6  O   UNL     1      -2.901  60.326  35.825  1.00  0.00    -0.253 OA
BRANCH   6   7
ATOM      7  P   UNL     1      -4.392  60.921  35.620  1.00  0.00     0.483 P 
ATOM      8  O   UNL     1      -5.490  60.089  36.217  1.00  0.00    -0.228 OA
BRANCH   7   9
ATOM      9  O   UNL     1      -4.524  61.144  34.024  1.00  0.00    -0.185 OA
BRANCH   9  10
ATOM     10  P   UNL     1      -3.850  62.241  33.047  1.00  0.00     0.478 P 
ATOM     11  O   UNL     1      -3.741  61.819  31.612  1.00  0.00    -0.228 OA
BRANCH  10  12
ATOM     12  O   UNL     1      -2.446  62.569  33.778  1.00  0.00    -0.302 OA
ATOM     13  H   UNL     1      -1.863  63.259  33.397  1.00  0.00     0.223 HD
ENDBRANCH  10  12
BRANCH  10  14
ATOM     14  O   UNL     1      -4.733  63.569  33.313  1.00  0.00    -0.302 OA
ATOM     15  H   UNL     1      -4.502  64.149  34.069  1.00  0.00     0.223 HD
ENDBRANCH  10  14
ENDBRANCH   9  10
ENDBRANCH   7   9
BRANCH   7  16
ATOM     16  O   UNL     1      -4.307  62.429  36.200  1.00  0.00    -0.302 OA
ATOM     17  H   UNL     1      -3.733  62.608  36.974  1.00  0.00     0.223 HD
ENDBRANCH   7  16
ENDBRANCH   6   7
ENDBRANCH   5   6
BRANCH   4  18
ATOM     18  O   UNL     1      -2.514  57.931  37.040  1.00  0.00    -0.385 OA
ATOM     19  H   UNL     1      -3.391  58.292  36.829  1.00  0.00     0.211 HD
ENDBRANCH   4  18
BRANCH   3  20
ATOM     20  C   UNL     1      -2.949  60.484  40.563  1.00  0.00     0.208 C 
BRANCH  20  21
ATOM     21  O   UNL     1      -2.844  61.866  40.265  1.00  0.00    -0.284 OA
BRANCH  21  22
ATOM     22  P   UNL     1      -4.160  62.794  40.436  1.00  0.00     0.469 P 
ATOM     23  O   UNL     1      -5.322  62.127  41.111  1.00  0.00    -0.228 OA
BRANCH  22  24
ATOM     24  O   UNL     1      -4.446  63.334  38.940  1.00  0.00    -0.303 OA
ATOM     25  H   UNL     1      -3.686  63.508  38.344  1.00  0.00     0.223 HD
ENDBRANCH  22  24
BRANCH  22  26
ATOM     26  O   UNL     1      -3.584  64.098  41.200  1.00  0.00    -0.303 OA
ATOM     27  H   UNL     1      -3.052  64.748  40.693  1.00  0.00     0.223 HD
ENDBRANCH  22  26
ENDBRANCH  21  22
ENDBRANCH  20  21
ENDBRANCH   3  20
BRANCH   2  28
ATOM     28  O   UNL     1      -1.419  57.829  39.560  1.00  0.00    -0.387 OA
ATOM     29  H   UNL     1      -1.865  57.161  39.011  1.00  0.00     0.211 HD
ENDBRANCH   2  28
TORSDOF 14
ENDMDL
MODEL 8
REMARK VINA RESULT:    -6.709      2.733      7.406
REMARK INTER + INTRA:         -11.859
REMARK INTER:                 -10.955
REMARK INTRA:                  -0.904
REMARK UNBOUND:                -1.032
REMARK SMILES O=P(O)(O)OC[C@H]1O[C@H](O[P@@](=O)(O)OP(=O)(O)O)[C@H](O)[C@@H]1O
REMARK SMILES IDX 8 1 21 2 7 3 19 4 9 5 10 6 11 7 12 8 14 9 15 10 16 11 17 12
REMARK SMILES IDX 18 14 13 16 20 18 6 20 5 21 2 22 1 23 3 24 4 26 22 28
REMARK H PARENT 17 13 18 15 13 17 20 19 3 25 4 27 22 29
REMARK Flexibility Score: inf
ROOT
ATOM      1  O   UNL     1      -3.188  60.426  38.530  1.00  0.00    -0.341 OA
ATOM      2  C   UNL     1      -1.426  58.889  38.898  1.00  0.00     0.179 C 
ATOM      3  C   UNL     1      -2.733  59.429  39.465  1.00  0.00     0.179 C 
ATOM      4  C   UNL     1      -1.682  58.985  37.410  1.00  0.00     0.202 C 
ATOM      5  C   UNL     1      -2.380  60.337  37.341  1.00  0.00     0.293 C 
ENDROOT
BRANCH   5   6
ATOM      6  O   UNL     1      -3.139  60.458  36.151  1.00  0.00    -0.253 OA
BRANCH   6   7
ATOM      7  P   UNL     1      -3.661  61.912  35.668  1.00  0.00     0.483 P 
ATOM      8  O   UNL     1      -5.145  62.117  35.778  1.00  0.00    -0.228 OA
BRANCH   7   9
ATOM      9  O   UNL     1      -3.079  62.075  34.169  1.00  0.00    -0.185 OA
BRANCH   9  10
ATOM     10  P   UNL     1      -3.511  63.062  32.965  1.00  0.00     0.478 P 
ATOM     11  O   UNL     1      -2.576  64.210  32.729  1.00  0.00    -0.228 OA
BRANCH  10  12
ATOM     12  O   UNL     1      -5.025  63.473  33.354  1.00  0.00    -0.302 OA
ATOM     13  H   UNL     1      -5.174  64.050  34.134  1.00  0.00     0.223 HD
ENDBRANCH  10  12
BRANCH  10  14
ATOM     14  O   UNL     1      -3.704  62.058  31.712  1.00  0.00    -0.302 OA
ATOM     15  H   UNL     1      -3.248  62.260  30.867  1.00  0.00     0.223 HD
ENDBRANCH  10  14
ENDBRANCH   9  10
ENDBRANCH   7   9
BRANCH   7  16
ATOM     16  O   UNL     1      -2.778  62.962  36.525  1.00  0.00    -0.302 OA
ATOM     17  H   UNL     1      -2.266  62.634  37.295  1.00  0.00     0.223 HD
ENDBRANCH   7  16
ENDBRANCH   6   7
ENDBRANCH   5   6
BRANCH   4  18
ATOM     18  O   UNL     1      -2.574  57.947  37.009  1.00  0.00    -0.385 OA
ATOM     19  H   UNL     1      -3.253  58.323  36.424  1.00  0.00     0.211 HD
ENDBRANCH   4  18
BRANCH   3  20
ATOM     20  C   UNL     1      -2.577  60.052  40.841  1.00  0.00     0.208 C 
BRANCH  20  21
ATOM     21  O   UNL     1      -3.282  59.261  41.784  1.00  0.00    -0.284 OA
BRANCH  21  22
ATOM     22  P   UNL     1      -4.720  59.787  42.309  1.00  0.00     0.469 P 
ATOM     23  O   UNL     1      -5.296  60.938  41.537  1.00  0.00    -0.228 OA
BRANCH  22  24
ATOM     24  O   UNL     1      -4.476  60.064  43.883  1.00  0.00    -0.303 OA
ATOM     25  H   UNL     1      -4.821  60.893  44.279  1.00  0.00     0.223 HD
ENDBRANCH  22  24
BRANCH  22  26
ATOM     26  O   UNL     1      -5.619  58.443  42.302  1.00  0.00    -0.303 OA
ATOM     27  H   UNL     1      -6.289  58.324  41.596  1.00  0.00     0.223 HD
ENDBRANCH  22  26
ENDBRANCH  21  22
ENDBRANCH  20  21
ENDBRANCH   3  20
BRANCH   2  28
ATOM     28  O   UNL     1      -1.162  57.574  39.338  1.00  0.00    -0.387 OA
ATOM     29  H   UNL     1      -0.286  57.574  39.761  1.00  0.00     0.211 HD
ENDBRANCH   2  28
TORSDOF 14
ENDMDL
MODEL 9
REMARK VINA RESULT:    -6.547      3.469      7.004
REMARK INTER + INTRA:         -11.598
REMARK INTER:                 -10.050
REMARK INTRA:                  -1.549
REMARK UNBOUND:                -1.032
REMARK SMILES O=P(O)(O)OC[C@H]1O[C@H](O[P@@](=O)(O)OP(=O)(O)O)[C@H](O)[C@@H]1O
REMARK SMILES IDX 8 1 21 2 7 3 19 4 9 5 10 6 11 7 12 8 14 9 15 10 16 11 17 12
REMARK SMILES IDX 18 14 13 16 20 18 6 20 5 21 2 22 1 23 3 24 4 26 22 28
REMARK H PARENT 17 13 18 15 13 17 20 19 3 25 4 27 22 29
REMARK Flexibility Score: inf
ROOT
ATOM      1  O   UNL     1      -3.225  62.033  39.240  1.00  0.00    -0.341 OA
ATOM      2  C   UNL     1      -5.429  62.388  40.028  1.00  0.00     0.179 C 
ATOM      3  C   UNL     1      -3.962  62.347  40.438  1.00  0.00     0.179 C 
ATOM      4  C   UNL     1      -5.330  62.910  38.612  1.00  0.00     0.202 C 
ATOM      5  C   UNL     1      -4.121  62.128  38.116  1.00  0.00     0.293 C 
ENDROOT
BRANCH   5   6
ATOM      6  O   UNL     1      -3.530  62.761  36.995  1.00  0.00    -0.253 OA
BRANCH   6   7
ATOM      7  P   UNL     1      -3.480  61.999  35.568  1.00  0.00     0.483 P 
ATOM      8  O   UNL     1      -3.867  62.844  34.389  1.00  0.00    -0.228 OA
BRANCH   7   9
ATOM      9  O   UNL     1      -4.404  60.688  35.775  1.00  0.00    -0.185 OA
BRANCH   9  10
ATOM     10  P   UNL     1      -4.177  59.150  35.335  1.00  0.00     0.478 P 
ATOM     11  O   UNL     1      -5.406  58.293  35.397  1.00  0.00    -0.228 OA
BRANCH  10  12
ATOM     12  O   UNL     1      -2.956  58.675  36.281  1.00  0.00    -0.302 OA
ATOM     13  H   UNL     1      -2.823  57.716  36.438  1.00  0.00     0.223 HD
ENDBRANCH  10  12
BRANCH  10  14
ATOM     14  O   UNL     1      -3.495  59.277  33.875  1.00  0.00    -0.302 OA
ATOM     15  H   UNL     1      -3.071  60.124  33.621  1.00  0.00     0.223 HD
ENDBRANCH  10  14
ENDBRANCH   9  10
ENDBRANCH   7   9
BRANCH   7  16
ATOM     16  O   UNL     1      -1.983  61.389  35.489  1.00  0.00    -0.302 OA
ATOM     17  H   UNL     1      -1.385  61.501  36.258  1.00  0.00     0.223 HD
ENDBRANCH   7  16
ENDBRANCH   6   7
ENDBRANCH   5   6
BRANCH   4  18
ATOM     18  O   UNL     1      -5.041  64.306  38.635  1.00  0.00    -0.385 OA
ATOM     19  H   UNL     1      -4.116  64.441  38.369  1.00  0.00     0.211 HD
ENDBRANCH   4  18
BRANCH   3  20
ATOM     20  C   UNL     1      -3.666  61.310  41.507  1.00  0.00     0.208 C 
BRANCH  20  21
ATOM     21  O   UNL     1      -2.642  60.449  41.038  1.00  0.00    -0.284 OA
BRANCH  21  22
ATOM     22  P   UNL     1      -3.023  58.914  40.694  1.00  0.00     0.469 P 
ATOM     23  O   UNL     1      -4.403  58.494  41.111  1.00  0.00    -0.228 OA
BRANCH  22  24
ATOM     24  O   UNL     1      -1.815  58.062  41.348  1.00  0.00    -0.303 OA
ATOM     25  H   UNL     1      -1.152  58.526  41.902  1.00  0.00     0.223 HD
ENDBRANCH  22  24
BRANCH  22  26
ATOM     26  O   UNL     1      -2.731  58.816  39.107  1.00  0.00    -0.303 OA
ATOM     27  H   UNL     1      -2.340  59.590  38.648  1.00  0.00     0.223 HD
ENDBRANCH  22  26
ENDBRANCH  21  22
ENDBRANCH  20  21
ENDBRANCH   3  20
BRANCH   2  28
ATOM     28  O   UNL     1      -6.192  63.214  40.880  1.00  0.00    -0.387 OA
ATOM     29  H   UNL     1      -6.929  63.576  40.358  1.00  0.00     0.211 HD
ENDBRANCH   2  28
TORSDOF 14
ENDMDL
MODEL 10
REMARK VINA RESULT:    -6.526      3.549      6.634
REMARK INTER + INTRA:         -11.563
REMARK INTER:                  -9.572
REMARK INTRA:                  -1.991
REMARK UNBOUND:                -1.032
REMARK SMILES O=P(O)(O)OC[C@H]1O[C@H](O[P@@](=O)(O)OP(=O)(O)O)[C@H](O)[C@@H]1O
REMARK SMILES IDX 8 1 21 2 7 3 19 4 9 5 10 6 11 7 12 8 14 9 15 10 16 11 17 12
REMARK SMILES IDX 18 14 13 16 20 18 6 20 5 21 2 22 1 23 3 24 4 26 22 28
REMARK H PARENT 17 13 18 15 13 17 20 19 3 25 4 27 22 29
REMARK Flexibility Score: inf
ROOT
ATOM      1  O   UNL     1      -4.479  62.444  36.812  1.00  0.00    -0.341 OA
ATOM      2  C   UNL     1      -4.428  62.727  39.162  1.00  0.00     0.179 C 
ATOM      3  C   UNL     1      -3.655  62.969  37.872  1.00  0.00     0.179 C 
ATOM      4  C   UNL     1      -5.857  62.871  38.687  1.00  0.00     0.202 C 
ATOM      5  C   UNL     1      -5.778  62.138  37.355  1.00  0.00     0.293 C 
ENDROOT
BRANCH   5   6
ATOM      6  O   UNL     1      -6.836  62.523  36.496  1.00  0.00    -0.253 OA
BRANCH   6   7
ATOM      7  P   UNL     1      -6.928  61.915  34.999  1.00  0.00     0.483 P 
ATOM      8  O   UNL     1      -8.256  62.101  34.324  1.00  0.00    -0.228 OA
BRANCH   7   9
ATOM      9  O   UNL     1      -6.478  60.370  35.162  1.00  0.00    -0.185 OA
BRANCH   9  10
ATOM     10  P   UNL     1      -5.719  59.374  34.141  1.00  0.00     0.478 P 
ATOM     11  O   UNL     1      -6.480  59.065  32.886  1.00  0.00    -0.228 OA
BRANCH  10  12
ATOM     12  O   UNL     1      -5.370  58.096  35.068  1.00  0.00    -0.302 OA
ATOM     13  H   UNL     1      -4.976  58.246  35.954  1.00  0.00     0.223 HD
ENDBRANCH  10  12
BRANCH  10  14
ATOM     14  O   UNL     1      -4.285  60.085  33.923  1.00  0.00    -0.302 OA
ATOM     15  H   UNL     1      -3.601  59.623  33.392  1.00  0.00     0.223 HD
ENDBRANCH  10  14
ENDBRANCH   9  10
ENDBRANCH   7   9
BRANCH   7  16
ATOM     16  O   UNL     1      -5.680  62.584  34.216  1.00  0.00    -0.302 OA
ATOM     17  H   UNL     1      -5.250  62.081  33.492  1.00  0.00     0.223 HD
ENDBRANCH   7  16
ENDBRANCH   6   7
ENDBRANCH   5   6
BRANCH   4  18
ATOM     18  O   UNL     1      -6.155  64.250  38.475  1.00  0.00    -0.385 OA
ATOM     19  H   UNL     1      -6.970  64.474  38.956  1.00  0.00     0.211 HD
ENDBRANCH   4  18
BRANCH   3  20
ATOM     20  C   UNL     1      -2.298  62.288  37.849  1.00  0.00     0.208 C 
BRANCH  20  21
ATOM     21  O   UNL     1      -2.487  60.888  37.971  1.00  0.00    -0.284 OA
BRANCH  21  22
ATOM     22  P   UNL     1      -2.050  59.940  36.734  1.00  0.00     0.469 P 
ATOM     23  O   UNL     1      -2.967  58.782  36.468  1.00  0.00    -0.228 OA
BRANCH  22  24
ATOM     24  O   UNL     1      -0.520  59.546  37.074  1.00  0.00    -0.303 OA
ATOM     25  H   UNL     1      -0.276  59.343  38.003  1.00  0.00     0.223 HD
ENDBRANCH  22  24
BRANCH  22  26
ATOM     26  O   UNL     1      -1.902  60.988  35.512  1.00  0.00    -0.303 OA
ATOM     27  H   UNL     1      -2.663  61.564  35.286  1.00  0.00     0.223 HD
ENDBRANCH  22  26
ENDBRANCH  21  22
ENDBRANCH  20  21
ENDBRANCH   3  20
BRANCH   2  28
ATOM     28  O   UNL     1      -4.076  63.649  40.170  1.00  0.00    -0.387 OA
ATOM     29  H   UNL     1      -4.581  63.422  40.969  1.00  0.00     0.211 HD
ENDBRANCH   2  28
TORSDOF 14
ENDMDL
MODEL 11
REMARK VINA RESULT:    -6.488      3.131      4.510
REMARK INTER + INTRA:         -11.502
REMARK INTER:                 -10.030
REMARK INTRA:                  -1.471
REMARK UNBOUND:                -1.032
REMARK SMILES O=P(O)(O)OC[C@H]1O[C@H](O[P@@](=O)(O)OP(=O)(O)O)[C@H](O)[C@@H]1O
REMARK SMILES IDX 8 1 21 2 7 3 19 4 9 5 10 6 11 7 12 8 14 9 15 10 16 11 17 12
REMARK SMILES IDX 18 14 13 16 20 18 6 20 5 21 2 22 1 23 3 24 4 26 22 28
REMARK H PARENT 17 13 18 15 13 17 20 19 3 25 4 27 22 29
REMARK Flexibility Score: inf
ROOT
ATOM      1  O   UNL     1      -4.668  62.286  37.147  1.00  0.00    -0.341 OA
ATOM      2  C   UNL     1      -2.881  60.974  36.315  1.00  0.00     0.179 C 
ATOM      3  C   UNL     1      -3.932  62.011  35.938  1.00  0.00     0.179 C 
ATOM      4  C   UNL     1      -2.572  61.366  37.743  1.00  0.00     0.202 C 
ATOM      5  C   UNL     1      -3.973  61.675  38.251  1.00  0.00     0.293 C 
ENDROOT
BRANCH   5   6
ATOM      6  O   UNL     1      -3.928  62.507  39.397  1.00  0.00    -0.253 OA
BRANCH   6   7
ATOM      7  P   UNL     1      -3.973  61.850  40.876  1.00  0.00     0.483 P 
ATOM      8  O   UNL     1      -2.838  60.917  41.185  1.00  0.00    -0.228 OA
BRANCH   7   9
ATOM      9  O   UNL     1      -5.437  61.169  40.973  1.00  0.00    -0.185 OA
BRANCH   9  10
ATOM     10  P   UNL     1      -6.903  61.755  40.632  1.00  0.00     0.478 P 
ATOM     11  O   UNL     1      -8.008  61.218  41.492  1.00  0.00    -0.228 OA
BRANCH  10  12
ATOM     12  O   UNL     1      -7.056  61.461  39.050  1.00  0.00    -0.302 OA
ATOM     13  H   UNL     1      -6.876  60.556  38.715  1.00  0.00     0.223 HD
ENDBRANCH  10  12
BRANCH  10  14
ATOM     14  O   UNL     1      -6.690  63.356  40.698  1.00  0.00    -0.302 OA
ATOM     15  H   UNL     1      -5.954  63.759  40.191  1.00  0.00     0.223 HD
ENDBRANCH  10  14
ENDBRANCH   9  10
ENDBRANCH   7   9
BRANCH   7  16
ATOM     16  O   UNL     1      -4.086  63.117  41.876  1.00  0.00    -0.302 OA
ATOM     17  H   UNL     1      -3.333  63.320  42.471  1.00  0.00     0.223 HD
ENDBRANCH   7  16
ENDBRANCH   6   7
ENDBRANCH   5   6
BRANCH   4  18
ATOM     18  O   UNL     1      -1.770  62.545  37.753  1.00  0.00    -0.385 OA
ATOM     19  H   UNL     1      -2.304  63.293  37.435  1.00  0.00     0.211 HD
ENDBRANCH   4  18
BRANCH   3  20
ATOM     20  C   UNL     1      -4.885  61.534  34.857  1.00  0.00     0.208 C 
BRANCH  20  21
ATOM     21  O   UNL     1      -4.146  61.288  33.672  1.00  0.00    -0.284 OA
BRANCH  21  22
ATOM     22  P   UNL     1      -3.709  62.551  32.759  1.00  0.00     0.469 P 
ATOM     23  O   UNL     1      -4.710  63.669  32.702  1.00  0.00    -0.228 OA
BRANCH  22  24
ATOM     24  O   UNL     1      -3.336  61.885  31.334  1.00  0.00    -0.303 OA
ATOM     25  H   UNL     1      -4.055  61.508  30.783  1.00  0.00     0.223 HD
ENDBRANCH  22  24
BRANCH  22  26
ATOM     26  O   UNL     1      -2.268  62.956  33.370  1.00  0.00    -0.303 OA
ATOM     27  H   UNL     1      -2.227  63.622  34.089  1.00  0.00     0.223 HD
ENDBRANCH  22  26
ENDBRANCH  21  22
ENDBRANCH  20  21
ENDBRANCH   3  20
BRANCH   2  28
ATOM     28  O   UNL     1      -1.758  61.026  35.462  1.00  0.00    -0.387 OA
ATOM     29  H   UNL     1      -1.004  61.347  35.985  1.00  0.00     0.211 HD
ENDBRANCH   2  28
TORSDOF 14
ENDMDL
MODEL 12
REMARK VINA RESULT:    -6.403      2.906      5.340
REMARK INTER + INTRA:         -11.365
REMARK INTER:                  -9.589
REMARK INTRA:                  -1.776
REMARK UNBOUND:                -1.032
REMARK SMILES O=P(O)(O)OC[C@H]1O[C@H](O[P@@](=O)(O)OP(=O)(O)O)[C@H](O)[C@@H]1O
REMARK SMILES IDX 8 1 21 2 7 3 19 4 9 5 10 6 11 7 12 8 14 9 15 10 16 11 17 12
REMARK SMILES IDX 18 14 13 16 20 18 6 20 5 21 2 22 1 23 3 24 4 26 22 28
REMARK H PARENT 17 13 18 15 13 17 20 19 3 25 4 27 22 29
REMARK Flexibility Score: inf
ROOT
ATOM      1  O   UNL     1      -5.724  59.601  34.515  1.00  0.00    -0.341 OA
ATOM      2  C   UNL     1      -5.446  57.317  33.958  1.00  0.00     0.179 C 
ATOM      3  C   UNL     1      -6.245  58.576  33.646  1.00  0.00     0.179 C 
ATOM      4  C   UNL     1      -4.094  57.899  34.309  1.00  0.00     0.202 C 
ATOM      5  C   UNL     1      -4.522  59.104  35.135  1.00  0.00     0.293 C 
ENDROOT
BRANCH   5   6
ATOM      6  O   UNL     1      -3.492  60.076  35.190  1.00  0.00    -0.253 OA
BRANCH   6   7
ATOM      7  P   UNL     1      -3.750  61.488  35.937  1.00  0.00     0.483 P 
ATOM      8  O   UNL     1      -4.678  61.417  37.115  1.00  0.00    -0.228 OA
BRANCH   7   9
ATOM      9  O   UNL     1      -4.246  62.483  34.762  1.00  0.00    -0.185 OA
BRANCH   9  10
ATOM     10  P   UNL     1      -3.686  62.719  33.265  1.00  0.00     0.478 P 
ATOM     11  O   UNL     1      -4.362  63.824  32.510  1.00  0.00    -0.228 OA
BRANCH  10  12
ATOM     12  O   UNL     1      -3.803  61.253  32.595  1.00  0.00    -0.302 OA
ATOM     13  H   UNL     1      -4.673  60.956  32.251  1.00  0.00     0.223 HD
ENDBRANCH  10  12
BRANCH  10  14
ATOM     14  O   UNL     1      -2.096  62.905  33.488  1.00  0.00    -0.302 OA
ATOM     15  H   UNL     1      -1.545  63.219  32.739  1.00  0.00     0.223 HD
ENDBRANCH  10  14
ENDBRANCH   9  10
ENDBRANCH   7   9
BRANCH   7  16
ATOM     16  O   UNL     1      -2.269  62.036  36.286  1.00  0.00    -0.302 OA
ATOM     17  H   UNL     1      -2.061  62.283  37.212  1.00  0.00     0.223 HD
ENDBRANCH   7  16
ENDBRANCH   6   7
ENDBRANCH   5   6
BRANCH   4  18
ATOM     18  O   UNL     1      -3.432  58.323  33.120  1.00  0.00    -0.385 OA
ATOM     19  H   UNL     1      -2.624  58.806  33.364  1.00  0.00     0.211 HD
ENDBRANCH   4  18
BRANCH   3  20
ATOM     20  C   UNL     1      -7.736  58.415  33.882  1.00  0.00     0.208 C 
BRANCH  20  21
ATOM     21  O   UNL     1      -8.417  59.492  33.260  1.00  0.00    -0.284 OA
BRANCH  21  22
ATOM     22  P   UNL     1      -9.266  60.508  34.191  1.00  0.00     0.469 P 
ATOM     23  O   UNL     1      -9.906  59.881  35.395  1.00  0.00    -0.228 OA
BRANCH  22  24
ATOM     24  O   UNL     1     -10.285  61.217  33.157  1.00  0.00    -0.303 OA
ATOM     25  H   UNL     1     -10.204  62.182  32.995  1.00  0.00     0.223 HD
ENDBRANCH  22  24
BRANCH  22  26
ATOM     26  O   UNL     1      -8.195  61.675  34.519  1.00  0.00    -0.303 OA
ATOM     27  H   UNL     1      -8.005  62.351  33.834  1.00  0.00     0.223 HD
ENDBRANCH  22  26
ENDBRANCH  21  22
ENDBRANCH  20  21
ENDBRANCH   3  20
BRANCH   2  28
ATOM     28  O   UNL     1      -5.408  56.430  32.862  1.00  0.00    -0.387 OA
ATOM     29  H   UNL     1      -4.483  56.163  32.729  1.00  0.00     0.211 HD
ENDBRANCH   2  28
TORSDOF 14
ENDMDL
MODEL 13
REMARK VINA RESULT:    -6.393      3.522      6.432
REMARK INTER + INTRA:         -11.348
REMARK INTER:                  -9.503
REMARK INTRA:                  -1.845
REMARK UNBOUND:                -1.032
REMARK SMILES O=P(O)(O)OC[C@H]1O[C@H](O[P@@](=O)(O)OP(=O)(O)O)[C@H](O)[C@@H]1O
REMARK SMILES IDX 8 1 21 2 7 3 19 4 9 5 10 6 11 7 12 8 14 9 15 10 16 11 17 12
REMARK SMILES IDX 18 14 13 16 20 18 6 20 5 21 2 22 1 23 3 24 4 26 22 28
REMARK H PARENT 17 13 18 15 13 17 20 19 3 25 4 27 22 29
REMARK Flexibility Score: inf
ROOT
ATOM      1  O   UNL     1      -4.329  60.773  38.049  1.00  0.00    -0.341 OA
ATOM      2  C   UNL     1      -2.483  61.299  36.663  1.00  0.00     0.179 C 
ATOM      3  C   UNL     1      -3.197  60.168  37.394  1.00  0.00     0.179 C 
ATOM      4  C   UNL     1      -3.645  62.190  36.283  1.00  0.00     0.202 C 
ATOM      5  C   UNL     1      -4.472  62.120  37.560  1.00  0.00     0.293 C 
ENDROOT
BRANCH   5   6
ATOM      6  O   UNL     1      -5.822  62.473  37.313  1.00  0.00    -0.253 OA
BRANCH   6   7
ATOM      7  P   UNL     1      -6.703  63.169  38.479  1.00  0.00     0.483 P 
ATOM      8  O   UNL     1      -7.359  64.461  38.086  1.00  0.00    -0.228 OA
BRANCH   7   9
ATOM      9  O   UNL     1      -5.689  63.296  39.732  1.00  0.00    -0.185 OA
BRANCH   9  10
ATOM     10  P   UNL     1      -5.552  62.413  41.078  1.00  0.00     0.478 P 
ATOM     11  O   UNL     1      -6.379  62.897  42.232  1.00  0.00    -0.228 OA
BRANCH  10  12
ATOM     12  O   UNL     1      -3.957  62.384  41.337  1.00  0.00    -0.302 OA
ATOM     13  H   UNL     1      -3.488  63.229  41.502  1.00  0.00     0.223 HD
ENDBRANCH  10  12
BRANCH  10  14
ATOM     14  O   UNL     1      -5.880  60.912  40.575  1.00  0.00    -0.302 OA
ATOM     15  H   UNL     1      -6.788  60.701  40.271  1.00  0.00     0.223 HD
ENDBRANCH  10  14
ENDBRANCH   9  10
ENDBRANCH   7   9
BRANCH   7  16
ATOM     16  O   UNL     1      -7.733  62.014  38.950  1.00  0.00    -0.302 OA
ATOM     17  H   UNL     1      -8.665  62.058  38.648  1.00  0.00     0.223 HD
ENDBRANCH   7  16
ENDBRANCH   6   7
ENDBRANCH   5   6
BRANCH   4  18
ATOM     18  O   UNL     1      -4.361  61.607  35.197  1.00  0.00    -0.385 OA
ATOM     19  H   UNL     1      -4.363  60.641  35.302  1.00  0.00     0.211 HD
ENDBRANCH   4  18
BRANCH   3  20
ATOM     20  C   UNL     1      -2.322  59.473  38.422  1.00  0.00     0.208 C 
BRANCH  20  21
ATOM     21  O   UNL     1      -2.632  59.985  39.708  1.00  0.00    -0.284 OA
BRANCH  21  22
ATOM     22  P   UNL     1      -3.001  58.939  40.886  1.00  0.00     0.469 P 
ATOM     23  O   UNL     1      -4.344  58.283  40.754  1.00  0.00    -0.228 OA
BRANCH  22  24
ATOM     24  O   UNL     1      -2.779  59.793  42.241  1.00  0.00    -0.303 OA
ATOM     25  H   UNL     1      -3.471  59.768  42.937  1.00  0.00     0.223 HD
ENDBRANCH  22  24
BRANCH  22  26
ATOM     26  O   UNL     1      -1.741  57.925  40.875  1.00  0.00    -0.303 OA
ATOM     27  H   UNL     1      -1.906  56.964  40.763  1.00  0.00     0.223 HD
ENDBRANCH  22  26
ENDBRANCH  21  22
ENDBRANCH  20  21
ENDBRANCH   3  20
BRANCH   2  28
ATOM     28  O   UNL     1      -1.749  60.831  35.554  1.00  0.00    -0.387 OA
ATOM     29  H   UNL     1      -1.780  61.517  34.866  1.00  0.00     0.211 HD
ENDBRANCH   2  28
TORSDOF 14
ENDMDL
MODEL 14
REMARK VINA RESULT:    -6.340      2.740      7.180
REMARK INTER + INTRA:         -11.264
REMARK INTER:                  -9.674
REMARK INTRA:                  -1.590
REMARK UNBOUND:                -1.032
REMARK SMILES O=P(O)(O)OC[C@H]1O[C@H](O[P@@](=O)(O)OP(=O)(O)O)[C@H](O)[C@@H]1O
REMARK SMILES IDX 8 1 21 2 7 3 19 4 9 5 10 6 11 7 12 8 14 9 15 10 16 11 17 12
REMARK SMILES IDX 18 14 13 16 20 18 6 20 5 21 2 22 1 23 3 24 4 26 22 28
REMARK H PARENT 17 13 18 15 13 17 20 19 3 25 4 27 22 29
REMARK Flexibility Score: inf
ROOT
ATOM      1  O   UNL     1      -2.771  60.820  38.099  1.00  0.00    -0.341 OA
ATOM      2  C   UNL     1      -4.442  62.452  38.485  1.00  0.00     0.179 C 
ATOM      3  C   UNL     1      -3.052  61.985  38.899  1.00  0.00     0.179 C 
ATOM      4  C   UNL     1      -4.461  62.075  37.020  1.00  0.00     0.202 C 
ATOM      5  C   UNL     1      -3.783  60.713  37.080  1.00  0.00     0.293 C 
ENDROOT
BRANCH   5   6
ATOM      6  O   UNL     1      -3.252  60.351  35.817  1.00  0.00    -0.253 OA
BRANCH   6   7
ATOM      7  P   UNL     1      -4.231  59.783  34.660  1.00  0.00     0.483 P 
ATOM      8  O   UNL     1      -3.627  58.718  33.790  1.00  0.00    -0.228 OA
BRANCH   7   9
ATOM      9  O   UNL     1      -4.715  61.099  33.855  1.00  0.00    -0.185 OA
BRANCH   9  10
ATOM     10  P   UNL     1      -3.883  62.173  32.981  1.00  0.00     0.478 P 
ATOM     11  O   UNL     1      -3.728  61.815  31.532  1.00  0.00    -0.228 OA
BRANCH  10  12
ATOM     12  O   UNL     1      -2.502  62.326  33.806  1.00  0.00    -0.302 OA
ATOM     13  H   UNL     1      -2.444  63.005  34.512  1.00  0.00     0.223 HD
ENDBRANCH  10  12
BRANCH  10  14
ATOM     14  O   UNL     1      -4.652  63.565  33.270  1.00  0.00    -0.302 OA
ATOM     15  H   UNL     1      -5.632  63.579  33.252  1.00  0.00     0.223 HD
ENDBRANCH  10  14
ENDBRANCH   9  10
ENDBRANCH   7   9
BRANCH   7  16
ATOM     16  O   UNL     1      -5.564  59.321  35.451  1.00  0.00    -0.302 OA
ATOM     17  H   UNL     1      -5.571  59.360  36.432  1.00  0.00     0.223 HD
ENDBRANCH   7  16
ENDBRANCH   6   7
ENDBRANCH   5   6
BRANCH   4  18
ATOM     18  O   UNL     1      -3.661  62.994  36.278  1.00  0.00    -0.385 OA
ATOM     19  H   UNL     1      -3.589  62.681  35.361  1.00  0.00     0.211 HD
ENDBRANCH   4  18
BRANCH   3  20
ATOM     20  C   UNL     1      -2.952  61.631  40.372  1.00  0.00     0.208 C 
BRANCH  20  21
ATOM     21  O   UNL     1      -4.128  60.938  40.756  1.00  0.00    -0.284 OA
BRANCH  21  22
ATOM     22  P   UNL     1      -3.991  59.400  41.243  1.00  0.00     0.469 P 
ATOM     23  O   UNL     1      -5.203  58.843  41.930  1.00  0.00    -0.228 OA
BRANCH  22  24
ATOM     24  O   UNL     1      -2.635  59.394  42.121  1.00  0.00    -0.303 OA
ATOM     25  H   UNL     1      -2.639  58.959  43.001  1.00  0.00     0.223 HD
ENDBRANCH  22  24
BRANCH  22  26
ATOM     26  O   UNL     1      -3.561  58.630  39.888  1.00  0.00    -0.303 OA
ATOM     27  H   UNL     1      -4.246  58.444  39.210  1.00  0.00     0.223 HD
ENDBRANCH  22  26
ENDBRANCH  21  22
ENDBRANCH  20  21
ENDBRANCH   3  20
BRANCH   2  28
ATOM     28  O   UNL     1      -4.626  63.832  38.712  1.00  0.00    -0.387 OA
ATOM     29  H   UNL     1      -4.613  64.278  37.848  1.00  0.00     0.211 HD
ENDBRANCH   2  28
TORSDOF 14
ENDMDL
MODEL 15
REMARK VINA RESULT:    -6.336      3.494      6.807
REMARK INTER + INTRA:         -11.257
REMARK INTER:                  -9.129
REMARK INTRA:                  -2.128
REMARK UNBOUND:                -1.032
REMARK SMILES O=P(O)(O)OC[C@H]1O[C@H](O[P@@](=O)(O)OP(=O)(O)O)[C@H](O)[C@@H]1O
REMARK SMILES IDX 8 1 21 2 7 3 19 4 9 5 10 6 11 7 12 8 14 9 15 10 16 11 17 12
REMARK SMILES IDX 18 14 13 16 20 18 6 20 5 21 2 22 1 23 3 24 4 26 22 28
REMARK H PARENT 17 13 18 15 13 17 20 19 3 25 4 27 22 29
REMARK Flexibility Score: inf
ROOT
ATOM      1  O   UNL     1      -4.815  62.033  37.326  1.00  0.00    -0.341 OA
ATOM      2  C   UNL     1      -5.290  62.487  39.600  1.00  0.00     0.179 C 
ATOM      3  C   UNL     1      -4.187  62.463  38.550  1.00  0.00     0.179 C 
ATOM      4  C   UNL     1      -6.490  62.880  38.766  1.00  0.00     0.202 C 
ATOM      5  C   UNL     1      -6.242  62.040  37.521  1.00  0.00     0.293 C 
ENDROOT
BRANCH   5   6
ATOM      6  O   UNL     1      -6.945  62.562  36.406  1.00  0.00    -0.253 OA
BRANCH   6   7
ATOM      7  P   UNL     1      -6.794  61.864  34.954  1.00  0.00     0.483 P 
ATOM      8  O   UNL     1      -6.461  60.400  34.991  1.00  0.00    -0.228 OA
BRANCH   7   9
ATOM      9  O   UNL     1      -5.703  62.771  34.179  1.00  0.00    -0.185 OA
BRANCH   9  10
ATOM     10  P   UNL     1      -4.157  62.485  33.807  1.00  0.00     0.478 P 
ATOM     11  O   UNL     1      -3.697  63.105  32.521  1.00  0.00    -0.228 OA
BRANCH  10  12
ATOM     12  O   UNL     1      -4.057  60.873  33.870  1.00  0.00    -0.302 OA
ATOM     13  H   UNL     1      -4.048  60.432  34.747  1.00  0.00     0.223 HD
ENDBRANCH  10  12
BRANCH  10  14
ATOM     14  O   UNL     1      -3.360  62.964  35.129  1.00  0.00    -0.302 OA
ATOM     15  H   UNL     1      -3.638  62.616  36.004  1.00  0.00     0.223 HD
ENDBRANCH  10  14
ENDBRANCH   9  10
ENDBRANCH   7   9
BRANCH   7  16
ATOM     16  O   UNL     1      -8.177  62.215  34.192  1.00  0.00    -0.302 OA
ATOM     17  H   UNL     1      -8.231  63.039  33.664  1.00  0.00     0.223 HD
ENDBRANCH   7  16
ENDBRANCH   6   7
ENDBRANCH   5   6
BRANCH   4  18
ATOM     18  O   UNL     1      -6.419  64.268  38.450  1.00  0.00    -0.385 OA
ATOM     19  H   UNL     1      -7.118  64.481  37.808  1.00  0.00     0.211 HD
ENDBRANCH   4  18
BRANCH   3  20
ATOM     20  C   UNL     1      -3.048  61.521  38.898  1.00  0.00     0.208 C 
BRANCH  20  21
ATOM     21  O   UNL     1      -2.121  61.508  37.825  1.00  0.00    -0.284 OA
BRANCH  21  22
ATOM     22  P   UNL     1      -1.971  60.153  36.952  1.00  0.00     0.469 P 
ATOM     23  O   UNL     1      -1.133  59.081  37.584  1.00  0.00    -0.228 OA
BRANCH  22  24
ATOM     24  O   UNL     1      -1.453  60.677  35.514  1.00  0.00    -0.303 OA
ATOM     25  H   UNL     1      -0.500  60.598  35.294  1.00  0.00     0.223 HD
ENDBRANCH  22  24
BRANCH  22  26
ATOM     26  O   UNL     1      -3.508  59.737  36.666  1.00  0.00    -0.303 OA
ATOM     27  H   UNL     1      -3.692  59.001  36.045  1.00  0.00     0.223 HD
ENDBRANCH  22  26
ENDBRANCH  21  22
ENDBRANCH  20  21
ENDBRANCH   3  20
BRANCH   2  28
ATOM     28  O   UNL     1      -5.008  63.397  40.641  1.00  0.00    -0.387 OA
ATOM     29  H   UNL     1      -4.186  63.108  41.072  1.00  0.00     0.211 HD
ENDBRANCH   2  28
TORSDOF 14
ENDMDL
MODEL 16
REMARK VINA RESULT:    -6.284      2.465      6.665
REMARK INTER + INTRA:         -11.173
REMARK INTER:                  -9.976
REMARK INTRA:                  -1.197
REMARK UNBOUND:                -1.032
REMARK SMILES O=P(O)(O)OC[C@H]1O[C@H](O[P@@](=O)(O)OP(=O)(O)O)[C@H](O)[C@@H]1O
REMARK SMILES IDX 8 1 21 2 7 3 19 4 9 5 10 6 11 7 12 8 14 9 15 10 16 11 17 12
REMARK SMILES IDX 18 14 13 16 20 18 6 20 5 21 2 22 1 23 3 24 4 26 22 28
REMARK H PARENT 17 13 18 15 13 17 20 19 3 25 4 27 22 29
REMARK Flexibility Score: inf
ROOT
ATOM      1  O   UNL     1      -4.487  59.831  37.502  1.00  0.00    -0.341 OA
ATOM      2  C   UNL     1      -2.615  59.396  38.884  1.00  0.00     0.179 C 
ATOM      3  C   UNL     1      -4.125  59.232  38.762  1.00  0.00     0.179 C 
ATOM      4  C   UNL     1      -2.184  59.293  37.437  1.00  0.00     0.202 C 
ATOM      5  C   UNL     1      -3.280  60.111  36.768  1.00  0.00     0.293 C 
ENDROOT
BRANCH   5   6
ATOM      6  O   UNL     1      -3.388  59.790  35.392  1.00  0.00    -0.253 OA
BRANCH   6   7
ATOM      7  P   UNL     1      -4.339  60.675  34.426  1.00  0.00     0.483 P 
ATOM      8  O   UNL     1      -4.753  59.992  33.154  1.00  0.00    -0.228 OA
BRANCH   7   9
ATOM      9  O   UNL     1      -3.521  62.052  34.202  1.00  0.00    -0.185 OA
BRANCH   9  10
ATOM     10  P   UNL     1      -3.493  63.078  32.955  1.00  0.00     0.478 P 
ATOM     11  O   UNL     1      -4.785  63.799  32.708  1.00  0.00    -0.228 OA
BRANCH  10  12
ATOM     12  O   UNL     1      -2.973  62.156  31.734  1.00  0.00    -0.302 OA
ATOM     13  H   UNL     1      -3.064  62.489  30.815  1.00  0.00     0.223 HD
ENDBRANCH  10  12
BRANCH  10  14
ATOM     14  O   UNL     1      -2.224  64.025  33.280  1.00  0.00    -0.302 OA
ATOM     15  H   UNL     1      -2.214  64.535  34.118  1.00  0.00     0.223 HD
ENDBRANCH  10  14
ENDBRANCH   9  10
ENDBRANCH   7   9
BRANCH   7  16
ATOM     16  O   UNL     1      -5.570  61.124  35.374  1.00  0.00    -0.302 OA
ATOM     17  H   UNL     1      -5.390  61.717  36.135  1.00  0.00     0.223 HD
ENDBRANCH   7  16
ENDBRANCH   6   7
ENDBRANCH   5   6
BRANCH   4  18
ATOM     18  O   UNL     1      -2.252  57.933  37.012  1.00  0.00    -0.385 OA
ATOM     19  H   UNL     1      -1.588  57.786  36.318  1.00  0.00     0.211 HD
ENDBRANCH   4  18
BRANCH   3  20
ATOM     20  C   UNL     1      -4.893  59.903  39.886  1.00  0.00     0.208 C 
BRANCH  20  21
ATOM     21  O   UNL     1      -3.992  60.681  40.656  1.00  0.00    -0.284 OA
BRANCH  21  22
ATOM     22  P   UNL     1      -4.108  62.293  40.585  1.00  0.00     0.469 P 
ATOM     23  O   UNL     1      -5.122  62.813  39.608  1.00  0.00    -0.228 OA
BRANCH  22  24
ATOM     24  O   UNL     1      -2.588  62.778  40.327  1.00  0.00    -0.303 OA
ATOM     25  H   UNL     1      -2.430  63.678  39.969  1.00  0.00     0.223 HD
ENDBRANCH  22  24
BRANCH  22  26
ATOM     26  O   UNL     1      -4.374  62.704  42.126  1.00  0.00    -0.303 OA
ATOM     27  H   UNL     1      -5.288  62.924  42.408  1.00  0.00     0.223 HD
ENDBRANCH  22  26
ENDBRANCH  21  22
ENDBRANCH  20  21
ENDBRANCH   3  20
BRANCH   2  28
ATOM     28  O   UNL     1      -2.041  58.408  39.712  1.00  0.00    -0.387 OA
ATOM     29  H   UNL     1      -1.081  58.560  39.733  1.00  0.00     0.211 HD
ENDBRANCH   2  28
TORSDOF 14
ENDMDL
MODEL 17
REMARK VINA RESULT:    -6.248      2.648      4.049
REMARK INTER + INTRA:         -11.114
REMARK INTER:                  -9.558
REMARK INTRA:                  -1.557
REMARK UNBOUND:                -1.032
REMARK SMILES O=P(O)(O)OC[C@H]1O[C@H](O[P@@](=O)(O)OP(=O)(O)O)[C@H](O)[C@@H]1O
REMARK SMILES IDX 8 1 21 2 7 3 19 4 9 5 10 6 11 7 12 8 14 9 15 10 16 11 17 12
REMARK SMILES IDX 18 14 13 16 20 18 6 20 5 21 2 22 1 23 3 24 4 26 22 28
REMARK H PARENT 17 13 18 15 13 17 20 19 3 25 4 27 22 29
REMARK Flexibility Score: inf
ROOT
ATOM      1  O   UNL     1      -4.747  60.218  37.111  1.00  0.00    -0.341 OA
ATOM      2  C   UNL     1      -2.920  61.723  37.082  1.00  0.00     0.179 C 
ATOM      3  C   UNL     1      -4.178  61.292  36.338  1.00  0.00     0.179 C 
ATOM      4  C   UNL     1      -3.324  61.477  38.520  1.00  0.00     0.202 C 
ATOM      5  C   UNL     1      -4.058  60.152  38.374  1.00  0.00     0.293 C 
ENDROOT
BRANCH   5   6
ATOM      6  O   UNL     1      -4.934  59.931  39.466  1.00  0.00    -0.253 OA
BRANCH   6   7
ATOM      7  P   UNL     1      -4.810  58.576  40.343  1.00  0.00     0.483 P 
ATOM      8  O   UNL     1      -5.775  57.490  39.963  1.00  0.00    -0.228 OA
BRANCH   7   9
ATOM      9  O   UNL     1      -4.941  59.072  41.876  1.00  0.00    -0.185 OA
BRANCH   9  10
ATOM     10  P   UNL     1      -4.207  60.273  42.668  1.00  0.00     0.478 P 
ATOM     11  O   UNL     1      -4.463  60.299  44.146  1.00  0.00    -0.228 OA
BRANCH  10  12
ATOM     12  O   UNL     1      -4.685  61.590  41.862  1.00  0.00    -0.302 OA
ATOM     13  H   UNL     1      -5.508  61.548  41.330  1.00  0.00     0.223 HD
ENDBRANCH  10  12
BRANCH  10  14
ATOM     14  O   UNL     1      -2.657  60.111  42.239  1.00  0.00    -0.302 OA
ATOM     15  H   UNL     1      -2.427  59.489  41.515  1.00  0.00     0.223 HD
ENDBRANCH  10  14
ENDBRANCH   9  10
ENDBRANCH   7   9
BRANCH   7  16
ATOM     16  O   UNL     1      -3.252  58.158  40.219  1.00  0.00    -0.302 OA
ATOM     17  H   UNL     1      -2.848  57.618  40.932  1.00  0.00     0.223 HD
ENDBRANCH   7  16
ENDBRANCH   6   7
ENDBRANCH   5   6
BRANCH   4  18
ATOM     18  O   UNL     1      -4.225  62.498  38.945  1.00  0.00    -0.385 OA
ATOM     19  H   UNL     1      -5.134  62.160  38.887  1.00  0.00     0.211 HD
ENDBRANCH   4  18
BRANCH   3  20
ATOM     20  C   UNL     1      -3.903  60.814  34.923  1.00  0.00     0.208 C 
BRANCH  20  21
ATOM     21  O   UNL     1      -4.640  61.618  34.017  1.00  0.00    -0.284 OA
BRANCH  21  22
ATOM     22  P   UNL     1      -3.826  62.568  32.991  1.00  0.00     0.469 P 
ATOM     23  O   UNL     1      -4.501  63.867  32.657  1.00  0.00    -0.228 OA
BRANCH  22  24
ATOM     24  O   UNL     1      -3.523  61.603  31.731  1.00  0.00    -0.303 OA
ATOM     25  H   UNL     1      -4.157  61.586  30.981  1.00  0.00     0.223 HD
ENDBRANCH  22  24
BRANCH  22  26
ATOM     26  O   UNL     1      -2.382  62.714  33.704  1.00  0.00    -0.303 OA
ATOM     27  H   UNL     1      -1.642  63.115  33.200  1.00  0.00     0.223 HD
ENDBRANCH  22  26
ENDBRANCH  21  22
ENDBRANCH  20  21
ENDBRANCH   3  20
BRANCH   2  28
ATOM     28  O   UNL     1      -2.582  63.066  36.816  1.00  0.00    -0.387 OA
ATOM     29  H   UNL     1      -2.488  63.162  35.853  1.00  0.00     0.211 HD
ENDBRANCH   2  28
TORSDOF 14
ENDMDL
MODEL 18
REMARK VINA RESULT:    -6.206      2.600      6.490
REMARK INTER + INTRA:         -11.047
REMARK INTER:                  -9.774
REMARK INTRA:                  -1.272
REMARK UNBOUND:                -1.032
REMARK SMILES O=P(O)(O)OC[C@H]1O[C@H](O[P@@](=O)(O)OP(=O)(O)O)[C@H](O)[C@@H]1O
REMARK SMILES IDX 8 1 21 2 7 3 19 4 9 5 10 6 11 7 12 8 14 9 15 10 16 11 17 12
REMARK SMILES IDX 18 14 13 16 20 18 6 20 5 21 2 22 1 23 3 24 4 26 22 28
REMARK H PARENT 17 13 18 15 13 17 20 19 3 25 4 27 22 29
REMARK Flexibility Score: inf
ROOT
ATOM      1  O   UNL     1      -3.469  59.640  37.070  1.00  0.00    -0.341 OA
ATOM      2  C   UNL     1      -3.407  61.995  36.843  1.00  0.00     0.179 C 
ATOM      3  C   UNL     1      -2.993  60.828  37.731  1.00  0.00     0.179 C 
ATOM      4  C   UNL     1      -3.313  61.373  35.467  1.00  0.00     0.202 C 
ATOM      5  C   UNL     1      -3.911  60.001  35.748  1.00  0.00     0.293 C 
ENDROOT
BRANCH   5   6
ATOM      6  O   UNL     1      -3.517  59.062  34.762  1.00  0.00    -0.253 OA
BRANCH   6   7
ATOM      7  P   UNL     1      -3.931  57.505  34.916  1.00  0.00     0.483 P 
ATOM      8  O   UNL     1      -3.709  56.670  33.688  1.00  0.00    -0.228 OA
BRANCH   7   9
ATOM      9  O   UNL     1      -5.466  57.541  35.424  1.00  0.00    -0.185 OA
BRANCH   9  10
ATOM     10  P   UNL     1      -6.851  57.672  34.604  1.00  0.00     0.478 P 
ATOM     11  O   UNL     1      -7.111  59.033  34.028  1.00  0.00    -0.228 OA
BRANCH  10  12
ATOM     12  O   UNL     1      -7.955  57.148  35.662  1.00  0.00    -0.302 OA
ATOM     13  H   UNL     1      -8.587  57.792  36.047  1.00  0.00     0.223 HD
ENDBRANCH  10  12
BRANCH  10  14
ATOM     14  O   UNL     1      -6.762  56.471  33.526  1.00  0.00    -0.302 OA
ATOM     15  H   UNL     1      -6.067  56.504  32.834  1.00  0.00     0.223 HD
ENDBRANCH  10  14
ENDBRANCH   9  10
ENDBRANCH   7   9
BRANCH   7  16
ATOM     16  O   UNL     1      -3.120  57.000  36.222  1.00  0.00    -0.302 OA
ATOM     17  H   UNL     1      -2.160  57.194  36.288  1.00  0.00     0.223 HD
ENDBRANCH   7  16
ENDBRANCH   6   7
ENDBRANCH   5   6
BRANCH   4  18
ATOM     18  O   UNL     1      -1.944  61.248  35.090  1.00  0.00    -0.385 OA
ATOM     19  H   UNL     1      -1.895  60.837  34.210  1.00  0.00     0.211 HD
ENDBRANCH   4  18
BRANCH   3  20
ATOM     20  C   UNL     1      -3.577  60.904  39.131  1.00  0.00     0.208 C 
BRANCH  20  21
ATOM     21  O   UNL     1      -2.574  60.541  40.065  1.00  0.00    -0.284 OA
BRANCH  21  22
ATOM     22  P   UNL     1      -2.499  59.001  40.557  1.00  0.00     0.469 P 
ATOM     23  O   UNL     1      -1.254  58.266  40.153  1.00  0.00    -0.228 OA
BRANCH  22  24
ATOM     24  O   UNL     1      -3.883  58.359  40.024  1.00  0.00    -0.303 OA
ATOM     25  H   UNL     1      -4.421  57.813  40.637  1.00  0.00     0.223 HD
ENDBRANCH  22  24
BRANCH  22  26
ATOM     26  O   UNL     1      -2.733  59.120  42.153  1.00  0.00    -0.303 OA
ATOM     27  H   UNL     1      -2.664  60.002  42.578  1.00  0.00     0.223 HD
ENDBRANCH  22  26
ENDBRANCH  21  22
ENDBRANCH  20  21
ENDBRANCH   3  20
BRANCH   2  28
ATOM     28  O   UNL     1      -2.563  63.113  37.012  1.00  0.00    -0.387 OA
ATOM     29  H   UNL     1      -2.992  63.715  37.643  1.00  0.00     0.211 HD
ENDBRANCH   2  28
TORSDOF 14
ENDMDL
MODEL 19
REMARK VINA RESULT:    -6.140      3.563      7.779
REMARK INTER + INTRA:         -10.940
REMARK INTER:                  -9.673
REMARK INTRA:                  -1.268
REMARK UNBOUND:                -1.032
REMARK SMILES O=P(O)(O)OC[C@H]1O[C@H](O[P@@](=O)(O)OP(=O)(O)O)[C@H](O)[C@@H]1O
REMARK SMILES IDX 8 1 21 2 7 3 19 4 9 5 10 6 11 7 12 8 14 9 15 10 16 11 17 12
REMARK SMILES IDX 18 14 13 16 20 18 6 20 5 21 2 22 1 23 3 24 4 26 22 28
REMARK H PARENT 17 13 18 15 13 17 20 19 3 25 4 27 22 29
REMARK Flexibility Score: inf
ROOT
ATOM      1  O   UNL     1      -4.572  60.777  38.149  1.00  0.00    -0.341 OA
ATOM      2  C   UNL     1      -3.599  62.511  39.434  1.00  0.00     0.179 C 
ATOM      3  C   UNL     1      -3.947  61.028  39.423  1.00  0.00     0.179 C 
ATOM      4  C   UNL     1      -3.290  62.757  37.973  1.00  0.00     0.202 C 
ATOM      5  C   UNL     1      -4.395  61.941  37.319  1.00  0.00     0.293 C 
ENDROOT
BRANCH   5   6
ATOM      6  O   UNL     1      -4.064  61.615  35.980  1.00  0.00    -0.253 OA
BRANCH   6   7
ATOM      7  P   UNL     1      -5.230  61.205  34.934  1.00  0.00     0.483 P 
ATOM      8  O   UNL     1      -5.870  59.873  35.196  1.00  0.00    -0.228 OA
BRANCH   7   9
ATOM      9  O   UNL     1      -4.533  61.332  33.481  1.00  0.00    -0.185 OA
BRANCH   9  10
ATOM     10  P   UNL     1      -3.746  62.559  32.785  1.00  0.00     0.478 P 
ATOM     11  O   UNL     1      -4.543  63.823  32.659  1.00  0.00    -0.228 OA
BRANCH  10  12
ATOM     12  O   UNL     1      -3.235  61.923  31.390  1.00  0.00    -0.302 OA
ATOM     13  H   UNL     1      -3.166  62.502  30.601  1.00  0.00     0.223 HD
ENDBRANCH  10  12
BRANCH  10  14
ATOM     14  O   UNL     1      -2.393  62.679  33.662  1.00  0.00    -0.302 OA
ATOM     15  H   UNL     1      -2.431  63.126  34.535  1.00  0.00     0.223 HD
ENDBRANCH  10  14
ENDBRANCH   9  10
ENDBRANCH   7   9
BRANCH   7  16
ATOM     16  O   UNL     1      -6.255  62.456  34.964  1.00  0.00    -0.302 OA
ATOM     17  H   UNL     1      -6.150  63.139  35.660  1.00  0.00     0.223 HD
ENDBRANCH   7  16
ENDBRANCH   6   7
ENDBRANCH   5   6
BRANCH   4  18
ATOM     18  O   UNL     1      -2.013  62.207  37.655  1.00  0.00    -0.385 OA
ATOM     19  H   UNL     1      -1.509  62.084  38.477  1.00  0.00     0.211 HD
ENDBRANCH   4  18
BRANCH   3  20
ATOM     20  C   UNL     1      -4.889  60.625  40.543  1.00  0.00     0.208 C 
BRANCH  20  21
ATOM     21  O   UNL     1      -5.593  61.774  40.984  1.00  0.00    -0.284 OA
BRANCH  21  22
ATOM     22  P   UNL     1      -5.626  62.096  42.570  1.00  0.00     0.469 P 
ATOM     23  O   UNL     1      -6.350  61.082  43.408  1.00  0.00    -0.228 OA
BRANCH  22  24
ATOM     24  O   UNL     1      -6.213  63.600  42.645  1.00  0.00    -0.303 OA
ATOM     25  H   UNL     1      -6.668  63.972  41.859  1.00  0.00     0.223 HD
ENDBRANCH  22  24
BRANCH  22  26
ATOM     26  O   UNL     1      -4.062  62.287  42.931  1.00  0.00    -0.303 OA
ATOM     27  H   UNL     1      -3.668  63.184  42.874  1.00  0.00     0.223 HD
ENDBRANCH  22  26
ENDBRANCH  21  22
ENDBRANCH  20  21
ENDBRANCH   3  20
BRANCH   2  28
ATOM     28  O   UNL     1      -2.516  62.794  40.293  1.00  0.00    -0.387 OA
ATOM     29  H   UNL     1      -1.714  62.418  39.892  1.00  0.00     0.211 HD
ENDBRANCH   2  28
TORSDOF 14
ENDMDL
MODEL 20
REMARK VINA RESULT:    -6.119      2.770      5.156
REMARK INTER + INTRA:         -10.907
REMARK INTER:                  -9.221
REMARK INTRA:                  -1.686
REMARK UNBOUND:                -1.032
REMARK SMILES O=P(O)(O)OC[C@H]1O[C@H](O[P@@](=O)(O)OP(=O)(O)O)[C@H](O)[C@@H]1O
REMARK SMILES IDX 8 1 21 2 7 3 19 4 9 5 10 6 11 7 12 8 14 9 15 10 16 11 17 12
REMARK SMILES IDX 18 14 13 16 20 18 6 20 5 21 2 22 1 23 3 24 4 26 22 28
REMARK H PARENT 17 13 18 15 13 17 20 19 3 25 4 27 22 29
REMARK Flexibility Score: inf
ROOT
ATOM      1  O   UNL     1      -4.675  60.242  36.327  1.00  0.00    -0.341 OA
ATOM      2  C   UNL     1      -2.346  59.851  36.165  1.00  0.00     0.179 C 
ATOM      3  C   UNL     1      -3.404  60.909  36.452  1.00  0.00     0.179 C 
ATOM      4  C   UNL     1      -3.010  58.607  36.713  1.00  0.00     0.202 C 
ATOM      5  C   UNL     1      -4.438  58.824  36.231  1.00  0.00     0.293 C 
ENDROOT
BRANCH   5   6
ATOM      6  O   UNL     1      -5.356  58.062  36.995  1.00  0.00    -0.253 OA
BRANCH   6   7
ATOM      7  P   UNL     1      -6.933  58.091  36.632  1.00  0.00     0.483 P 
ATOM      8  O   UNL     1      -7.758  57.044  37.323  1.00  0.00    -0.228 OA
BRANCH   7   9
ATOM      9  O   UNL     1      -6.978  58.012  35.017  1.00  0.00    -0.185 OA
BRANCH   9  10
ATOM     10  P   UNL     1      -7.515  59.067  33.918  1.00  0.00     0.478 P 
ATOM     11  O   UNL     1      -9.002  59.269  33.918  1.00  0.00    -0.228 OA
BRANCH  10  12
ATOM     12  O   UNL     1      -6.894  58.505  32.536  1.00  0.00    -0.302 OA
ATOM     13  H   UNL     1      -6.884  57.536  32.380  1.00  0.00     0.223 HD
ENDBRANCH  10  12
BRANCH  10  14
ATOM     14  O   UNL     1      -6.638  60.392  34.214  1.00  0.00    -0.302 OA
ATOM     15  H   UNL     1      -6.654  61.127  33.565  1.00  0.00     0.223 HD
ENDBRANCH  10  14
ENDBRANCH   9  10
ENDBRANCH   7   9
BRANCH   7  16
ATOM     16  O   UNL     1      -7.389  59.612  36.941  1.00  0.00    -0.302 OA
ATOM     17  H   UNL     1      -7.908  59.795  37.753  1.00  0.00     0.223 HD
ENDBRANCH   7  16
ENDBRANCH   6   7
ENDBRANCH   5   6
BRANCH   4  18
ATOM     18  O   UNL     1      -2.960  58.625  38.138  1.00  0.00    -0.385 OA
ATOM     19  H   UNL     1      -2.060  58.396  38.425  1.00  0.00     0.211 HD
ENDBRANCH   4  18
BRANCH   3  20
ATOM     20  C   UNL     1      -3.348  62.087  35.496  1.00  0.00     0.208 C 
BRANCH  20  21
ATOM     21  O   UNL     1      -3.959  61.712  34.272  1.00  0.00    -0.284 OA
BRANCH  21  22
ATOM     22  P   UNL     1      -3.638  62.589  32.950  1.00  0.00     0.469 P 
ATOM     23  O   UNL     1      -4.551  63.760  32.728  1.00  0.00    -0.228 OA
BRANCH  22  24
ATOM     24  O   UNL     1      -3.615  61.496  31.760  1.00  0.00    -0.303 OA
ATOM     25  H   UNL     1      -3.979  60.600  31.930  1.00  0.00     0.223 HD
ENDBRANCH  22  24
BRANCH  22  26
ATOM     26  O   UNL     1      -2.077  62.968  33.139  1.00  0.00    -0.303 OA
ATOM     27  H   UNL     1      -1.398  62.417  32.694  1.00  0.00     0.223 HD
ENDBRANCH  22  26
ENDBRANCH  21  22
ENDBRANCH  20  21
ENDBRANCH   3  20
BRANCH   2  28
ATOM     28  O   UNL     1      -1.116  60.151  36.786  1.00  0.00    -0.387 OA
ATOM     29  H   UNL     1      -1.205  61.018  37.216  1.00  0.00     0.211 HD
ENDBRANCH   2  28
TORSDOF 14
ENDMDL
