MODEL 1
REMARK VINA RESULT:    -9.569      0.000      0.000
REMARK INTER + INTRA:         -17.031
REMARK INTER:                 -15.442
REMARK INTRA:                  -1.589
REMARK UNBOUND:                -1.589
REMARK SMILES O=P(O)(O)OC[C@H]1O[C@H](O[P@@](=O)(O)OP(=O)(O)O)[C@H](O)[C@@H]1O
REMARK SMILES IDX 8 1 21 2 7 3 19 4 9 5 10 6 11 7 12 8 14 9 15 10 16 11 17 12
REMARK SMILES IDX 18 14 13 16 20 18 6 20 5 21 2 22 1 23 3 24 4 26 22 28
REMARK H PARENT 17 13 18 15 13 17 20 19 3 25 4 27 22 29
REMARK Flexibility Score: inf
ROOT
ATOM      1  O   UNL     1      -3.750  61.956  38.105  1.00  0.00    -0.341 OA
ATOM      2  C   UNL     1      -5.357  62.207  39.824  1.00  0.00     0.179 C 
ATOM      3  C   UNL     1      -3.882  62.368  39.479  1.00  0.00     0.179 C 
ATOM      4  C   UNL     1      -6.011  62.526  38.498  1.00  0.00     0.202 C 
ATOM      5  C   UNL     1      -5.068  61.801  37.547  1.00  0.00     0.293 C 
ENDROOT
BRANCH   5   6
ATOM      6  O   UNL     1      -5.172  62.319  36.232  1.00  0.00    -0.253 OA
BRANCH   6   7
ATOM      7  P   UNL     1      -6.199  61.648  35.176  1.00  0.00     0.483 P 
ATOM      8  O   UNL     1      -6.979  60.482  35.711  1.00  0.00    -0.228 OA
BRANCH   7   9
ATOM      9  O   UNL     1      -5.285  61.300  33.888  1.00  0.00    -0.185 OA
BRANCH   9  10
ATOM     10  P   UNL     1      -4.127  62.149  33.149  1.00  0.00     0.478 P 
ATOM     11  O   UNL     1      -3.832  61.715  31.744  1.00  0.00    -0.228 OA
BRANCH  10  12
ATOM     12  O   UNL     1      -2.885  62.048  34.178  1.00  0.00    -0.302 OA
ATOM     13  H   UNL     1      -3.058  62.127  35.140  1.00  0.00     0.223 HD
ENDBRANCH  10  12
BRANCH  10  14
ATOM     14  O   UNL     1      -4.626  63.679  33.309  1.00  0.00    -0.302 OA
ATOM     15  H   UNL     1      -4.301  64.353  32.676  1.00  0.00     0.223 HD
ENDBRANCH  10  14
ENDBRANCH   9  10
ENDBRANCH   7   9
BRANCH   7  16
ATOM     16  O   UNL     1      -7.110  62.882  34.662  1.00  0.00    -0.302 OA
ATOM     17  H   UNL     1      -6.680  63.743  34.473  1.00  0.00     0.223 HD
ENDBRANCH   7  16
ENDBRANCH   6   7
ENDBRANCH   5   6
BRANCH   4  18
ATOM     18  O   UNL     1      -5.964  63.932  38.266  1.00  0.00    -0.385 OA
ATOM     19  H   UNL     1      -6.867  64.257  38.111  1.00  0.00     0.211 HD
ENDBRANCH   4  18
BRANCH   3  20
ATOM     20  C   UNL     1      -2.967  61.530  40.355  1.00  0.00     0.208 C 
BRANCH  20  21
ATOM     21  O   UNL     1      -3.714  60.454  40.899  1.00  0.00    -0.284 OA
BRANCH  21  22
ATOM     22  P   UNL     1      -3.256  58.942  40.547  1.00  0.00     0.469 P 
ATOM     23  O   UNL     1      -2.155  58.396  41.408  1.00  0.00    -0.228 OA
BRANCH  22  24
ATOM     24  O   UNL     1      -2.933  58.996  38.964  1.00  0.00    -0.303 OA
ATOM     25  H   UNL     1      -3.480  59.571  38.387  1.00  0.00     0.223 HD
ENDBRANCH  22  24
BRANCH  22  26
ATOM     26  O   UNL     1      -4.646  58.119  40.615  1.00  0.00    -0.303 OA
ATOM     27  H   UNL     1      -5.092  57.870  39.778  1.00  0.00     0.223 HD
ENDBRANCH  22  26
ENDBRANCH  21  22
ENDBRANCH  20  21
ENDBRANCH   3  20
BRANCH   2  28
ATOM     28  O   UNL     1      -5.753  63.070  40.867  1.00  0.00    -0.387 OA
ATOM     29  H   UNL     1      -6.492  63.611  40.540  1.00  0.00     0.211 HD
ENDBRANCH   2  28
TORSDOF 14
REMARK SMILES O=c1[nH]cc(F)c(=O)[nH]1
REMARK SMILES IDX 6 1 8 2 1 3 9 4 3 5 7 6 2 7 5 8 4 9
REMARK H PARENT 9 10 3 11
REMARK Flexibility Score: inf
ROOT
ATOM      1  F   UNL     1      -6.233  56.448  33.872  1.00  0.00    -0.199 F 
ATOM      2  O   UNL     1      -6.232  56.980  36.542  1.00  0.00    -0.266 OA
ATOM      3  O   UNL     1      -2.567  59.766  36.045  1.00  0.00    -0.248 OA
ATOM      4  N   UNL     1      -4.395  58.380  36.320  1.00  0.00    -0.272 N 
ATOM      5  N   UNL     1      -3.446  58.705  34.198  1.00  0.00    -0.311 N 
ATOM      6  C   UNL     1      -5.376  57.515  35.845  1.00  0.00     0.289 A 
ATOM      7  C   UNL     1      -3.405  59.008  35.555  1.00  0.00     0.325 A 
ATOM      8  C   UNL     1      -5.309  57.277  34.390  1.00  0.00     0.204 A 
ATOM      9  C   UNL     1      -4.374  57.865  33.646  1.00  0.00     0.132 A 
ATOM     10  H   UNL     1      -4.398  58.576  37.317  1.00  0.00     0.175 HD
ATOM     11  H   UNL     1      -2.758  59.123  33.580  1.00  0.00     0.171 HD
ENDROOT
TORSDOF 0
ENDMDL
MODEL 2
REMARK VINA RESULT:    -9.492      2.472      6.806
REMARK INTER + INTRA:         -16.908
REMARK INTER:                 -15.657
REMARK INTRA:                  -1.251
REMARK UNBOUND:                -1.589
REMARK SMILES O=P(O)(O)OC[C@H]1O[C@H](O[P@@](=O)(O)OP(=O)(O)O)[C@H](O)[C@@H]1O
REMARK SMILES IDX 8 1 21 2 7 3 19 4 9 5 10 6 11 7 12 8 14 9 15 10 16 11 17 12
REMARK SMILES IDX 18 14 13 16 20 18 6 20 5 21 2 22 1 23 3 24 4 26 22 28
REMARK H PARENT 17 13 18 15 13 17 20 19 3 25 4 27 22 29
REMARK Flexibility Score: inf
ROOT
ATOM      1  O   UNL     1      -3.417  59.382  34.985  1.00  0.00    -0.341 OA
ATOM      2  C   UNL     1      -5.160  57.945  34.280  1.00  0.00     0.179 C 
ATOM      3  C   UNL     1      -4.168  59.004  33.816  1.00  0.00     0.179 C 
ATOM      4  C   UNL     1      -4.371  57.252  35.370  1.00  0.00     0.202 C 
ATOM      5  C   UNL     1      -3.723  58.454  36.043  1.00  0.00     0.293 C 
ENDROOT
BRANCH   5   6
ATOM      6  O   UNL     1      -2.578  58.068  36.783  1.00  0.00    -0.253 OA
BRANCH   6   7
ATOM      7  P   UNL     1      -1.631  59.195  37.456  1.00  0.00     0.483 P 
ATOM      8  O   UNL     1      -0.263  59.312  36.848  1.00  0.00    -0.228 OA
BRANCH   7   9
ATOM      9  O   UNL     1      -1.627  58.834  39.032  1.00  0.00    -0.185 OA
BRANCH   9  10
ATOM     10  P   UNL     1      -2.662  59.219  40.211  1.00  0.00     0.478 P 
ATOM     11  O   UNL     1      -2.635  60.662  40.621  1.00  0.00    -0.228 OA
BRANCH  10  12
ATOM     12  O   UNL     1      -2.297  58.163  41.378  1.00  0.00    -0.302 OA
ATOM     13  H   UNL     1      -2.012  57.258  41.128  1.00  0.00     0.223 HD
ENDBRANCH  10  12
BRANCH  10  14
ATOM     14  O   UNL     1      -4.081  58.686  39.650  1.00  0.00    -0.302 OA
ATOM     15  H   UNL     1      -4.746  58.346  40.286  1.00  0.00     0.223 HD
ENDBRANCH  10  14
ENDBRANCH   9  10
ENDBRANCH   7   9
BRANCH   7  16
ATOM     16  O   UNL     1      -2.509  60.552  37.389  1.00  0.00    -0.302 OA
ATOM     17  H   UNL     1      -3.362  60.589  37.872  1.00  0.00     0.223 HD
ENDBRANCH   7  16
ENDBRANCH   6   7
ENDBRANCH   5   6
BRANCH   4  18
ATOM     18  O   UNL     1      -3.375  56.417  34.783  1.00  0.00    -0.385 OA
ATOM     19  H   UNL     1      -3.798  55.831  34.133  1.00  0.00     0.211 HD
ENDBRANCH   4  18
BRANCH   3  20
ATOM     20  C   UNL     1      -4.836  60.230  33.218  1.00  0.00     0.208 C 
BRANCH  20  21
ATOM     21  O   UNL     1      -4.318  61.388  33.853  1.00  0.00    -0.284 OA
BRANCH  21  22
ATOM     22  P   UNL     1      -3.698  62.561  32.927  1.00  0.00     0.469 P 
ATOM     23  O   UNL     1      -2.476  63.230  33.486  1.00  0.00    -0.228 OA
BRANCH  22  24
ATOM     24  O   UNL     1      -4.955  63.538  32.651  1.00  0.00    -0.303 OA
ATOM     25  H   UNL     1      -5.746  63.178  32.194  1.00  0.00     0.223 HD
ENDBRANCH  22  24
BRANCH  22  26
ATOM     26  O   UNL     1      -3.480  61.822  31.505  1.00  0.00    -0.303 OA
ATOM     27  H   UNL     1      -2.575  61.548  31.247  1.00  0.00     0.223 HD
ENDBRANCH  22  26
ENDBRANCH  21  22
ENDBRANCH  20  21
ENDBRANCH   3  20
BRANCH   2  28
ATOM     28  O   UNL     1      -5.544  57.084  33.231  1.00  0.00    -0.387 OA
ATOM     29  H   UNL     1      -4.928  57.225  32.492  1.00  0.00     0.211 HD
ENDBRANCH   2  28
TORSDOF 14
REMARK SMILES O=c1[nH]cc(F)c(=O)[nH]1
REMARK SMILES IDX 6 1 8 2 1 3 9 4 3 5 7 6 2 7 5 8 4 9
REMARK H PARENT 9 10 3 11
REMARK Flexibility Score: inf
ROOT
ATOM      1  F   UNL     1      -9.038  61.245  33.923  1.00  0.00    -0.199 F 
ATOM      2  O   UNL     1      -7.390  63.363  34.379  1.00  0.00    -0.266 OA
ATOM      3  O   UNL     1      -5.275  61.056  37.792  1.00  0.00    -0.248 OA
ATOM      4  N   UNL     1      -6.315  62.229  36.094  1.00  0.00    -0.272 N 
ATOM      5  N   UNL     1      -6.998  60.050  36.638  1.00  0.00    -0.311 N 
ATOM      6  C   UNL     1      -7.255  62.364  35.077  1.00  0.00     0.289 A 
ATOM      7  C   UNL     1      -6.133  61.105  36.909  1.00  0.00     0.325 A 
ATOM      8  C   UNL     1      -8.109  61.175  34.893  1.00  0.00     0.204 A 
ATOM      9  C   UNL     1      -7.951  60.097  35.658  1.00  0.00     0.132 A 
ATOM     10  H   UNL     1      -5.701  63.022  36.261  1.00  0.00     0.175 HD
ATOM     11  H   UNL     1      -6.925  59.201  37.190  1.00  0.00     0.171 HD
ENDROOT
TORSDOF 0
ENDMDL
MODEL 3
REMARK VINA RESULT:    -9.415      2.741      6.181
REMARK INTER + INTRA:         -16.783
REMARK INTER:                 -15.109
REMARK INTRA:                  -1.674
REMARK UNBOUND:                -1.589
REMARK SMILES O=P(O)(O)OC[C@H]1O[C@H](O[P@@](=O)(O)OP(=O)(O)O)[C@H](O)[C@@H]1O
REMARK SMILES IDX 8 1 21 2 7 3 19 4 9 5 10 6 11 7 12 8 14 9 15 10 16 11 17 12
REMARK SMILES IDX 18 14 13 16 20 18 6 20 5 21 2 22 1 23 3 24 4 26 22 28
REMARK H PARENT 17 13 18 15 13 17 20 19 3 25 4 27 22 29
REMARK Flexibility Score: inf
ROOT
ATOM      1  O   UNL     1      -5.074  60.030  35.632  1.00  0.00    -0.341 OA
ATOM      2  C   UNL     1      -5.513  57.978  34.537  1.00  0.00     0.179 C 
ATOM      3  C   UNL     1      -4.643  59.228  34.515  1.00  0.00     0.179 C 
ATOM      4  C   UNL     1      -5.734  57.792  36.022  1.00  0.00     0.202 C 
ATOM      5  C   UNL     1      -5.957  59.237  36.447  1.00  0.00     0.293 C 
ENDROOT
BRANCH   5   6
ATOM      6  O   UNL     1      -5.721  59.403  37.834  1.00  0.00    -0.253 OA
BRANCH   6   7
ATOM      7  P   UNL     1      -5.882  60.863  38.514  1.00  0.00     0.483 P 
ATOM      8  O   UNL     1      -6.896  61.755  37.858  1.00  0.00    -0.228 OA
BRANCH   7   9
ATOM      9  O   UNL     1      -4.383  61.468  38.536  1.00  0.00    -0.185 OA
BRANCH   9  10
ATOM     10  P   UNL     1      -3.745  62.748  37.785  1.00  0.00     0.478 P 
ATOM     11  O   UNL     1      -4.033  64.067  38.439  1.00  0.00    -0.228 OA
BRANCH  10  12
ATOM     12  O   UNL     1      -4.292  62.595  36.271  1.00  0.00    -0.302 OA
ATOM     13  H   UNL     1      -4.643  61.727  35.979  1.00  0.00     0.223 HD
ENDBRANCH  10  12
BRANCH  10  14
ATOM     14  O   UNL     1      -2.180  62.366  37.660  1.00  0.00    -0.302 OA
ATOM     15  H   UNL     1      -1.624  62.845  37.008  1.00  0.00     0.223 HD
ENDBRANCH  10  14
ENDBRANCH   9  10
ENDBRANCH   7   9
BRANCH   7  16
ATOM     16  O   UNL     1      -6.178  60.550  40.073  1.00  0.00    -0.302 OA
ATOM     17  H   UNL     1      -6.053  61.265  40.733  1.00  0.00     0.223 HD
ENDBRANCH   7  16
ENDBRANCH   6   7
ENDBRANCH   5   6
BRANCH   4  18
ATOM     18  O   UNL     1      -4.547  57.278  36.622  1.00  0.00    -0.385 OA
ATOM     19  H   UNL     1      -4.474  56.331  36.415  1.00  0.00     0.211 HD
ENDBRANCH   4  18
BRANCH   3  20
ATOM     20  C   UNL     1      -4.774  60.027  33.230  1.00  0.00     0.208 C 
BRANCH  20  21
ATOM     21  O   UNL     1      -4.788  61.408  33.551  1.00  0.00    -0.284 OA
BRANCH  21  22
ATOM     22  P   UNL     1      -3.808  62.401  32.730  1.00  0.00     0.469 P 
ATOM     23  O   UNL     1      -3.378  61.897  31.384  1.00  0.00    -0.228 OA
BRANCH  22  24
ATOM     24  O   UNL     1      -2.609  62.703  33.770  1.00  0.00    -0.303 OA
ATOM     25  H   UNL     1      -1.714  62.348  33.581  1.00  0.00     0.223 HD
ENDBRANCH  22  24
BRANCH  22  26
ATOM     26  O   UNL     1      -4.639  63.788  32.705  1.00  0.00    -0.303 OA
ATOM     27  H   UNL     1      -4.312  64.527  32.149  1.00  0.00     0.223 HD
ENDBRANCH  22  26
ENDBRANCH  21  22
ENDBRANCH  20  21
ENDBRANCH   3  20
BRANCH   2  28
ATOM     28  O   UNL     1      -4.876  56.879  33.923  1.00  0.00    -0.387 OA
ATOM     29  H   UNL     1      -5.339  56.072  34.205  1.00  0.00     0.211 HD
ENDBRANCH   2  28
TORSDOF 14
REMARK SMILES O=c1[nH]cc(F)c(=O)[nH]1
REMARK SMILES IDX 6 1 8 2 1 3 9 4 3 5 7 6 2 7 5 8 4 9
REMARK H PARENT 9 10 3 11
REMARK Flexibility Score: inf
ROOT
ATOM      1  F   UNL     1       0.348  58.538  37.536  1.00  0.00    -0.199 F 
ATOM      2  O   UNL     1      -2.102  59.343  36.665  1.00  0.00    -0.266 OA
ATOM      3  O   UNL     1      -3.905  58.600  40.865  1.00  0.00    -0.248 OA
ATOM      4  N   UNL     1      -3.030  58.977  38.759  1.00  0.00    -0.272 N 
ATOM      5  N   UNL     1      -1.668  58.184  40.499  1.00  0.00    -0.311 N 
ATOM      6  C   UNL     1      -1.991  58.994  37.835  1.00  0.00     0.289 A 
ATOM      7  C   UNL     1      -2.938  58.587  40.101  1.00  0.00     0.325 A 
ATOM      8  C   UNL     1      -0.696  58.544  38.384  1.00  0.00     0.204 A 
ATOM      9  C   UNL     1      -0.590  58.168  39.657  1.00  0.00     0.132 A 
ATOM     10  H   UNL     1      -3.943  59.278  38.430  1.00  0.00     0.175 HD
ATOM     11  H   UNL     1      -1.524  57.886  41.459  1.00  0.00     0.171 HD
ENDROOT
TORSDOF 0
ENDMDL
MODEL 4
REMARK VINA RESULT:    -9.413      2.386      2.958
REMARK INTER + INTRA:         -16.780
REMARK INTER:                 -15.679
REMARK INTRA:                  -1.101
REMARK UNBOUND:                -1.589
REMARK SMILES O=P(O)(O)OC[C@H]1O[C@H](O[P@@](=O)(O)OP(=O)(O)O)[C@H](O)[C@@H]1O
REMARK SMILES IDX 8 1 21 2 7 3 19 4 9 5 10 6 11 7 12 8 14 9 15 10 16 11 17 12
REMARK SMILES IDX 18 14 13 16 20 18 6 20 5 21 2 22 1 23 3 24 4 26 22 28
REMARK H PARENT 17 13 18 15 13 17 20 19 3 25 4 27 22 29
REMARK Flexibility Score: inf
ROOT
ATOM      1  O   UNL     1      -5.528  61.005  38.388  1.00  0.00    -0.341 OA
ATOM      2  C   UNL     1      -6.546  62.408  40.000  1.00  0.00     0.179 C 
ATOM      3  C   UNL     1      -5.507  61.313  39.796  1.00  0.00     0.179 C 
ATOM      4  C   UNL     1      -6.447  63.164  38.693  1.00  0.00     0.202 C 
ATOM      5  C   UNL     1      -6.320  62.003  37.716  1.00  0.00     0.293 C 
ENDROOT
BRANCH   5   6
ATOM      6  O   UNL     1      -5.745  62.427  36.492  1.00  0.00    -0.253 OA
BRANCH   6   7
ATOM      7  P   UNL     1      -6.233  61.767  35.097  1.00  0.00     0.483 P 
ATOM      8  O   UNL     1      -7.027  60.501  35.243  1.00  0.00    -0.228 OA
BRANCH   7   9
ATOM      9  O   UNL     1      -4.878  61.603  34.231  1.00  0.00    -0.185 OA
BRANCH   9  10
ATOM     10  P   UNL     1      -4.150  62.610  33.199  1.00  0.00     0.478 P 
ATOM     11  O   UNL     1      -4.878  63.901  32.965  1.00  0.00    -0.228 OA
BRANCH  10  12
ATOM     12  O   UNL     1      -3.930  61.694  31.886  1.00  0.00    -0.302 OA
ATOM     13  H   UNL     1      -4.531  61.811  31.119  1.00  0.00     0.223 HD
ENDBRANCH  10  12
BRANCH  10  14
ATOM     14  O   UNL     1      -2.661  62.758  33.809  1.00  0.00    -0.302 OA
ATOM     15  H   UNL     1      -2.324  63.653  34.029  1.00  0.00     0.223 HD
ENDBRANCH  10  14
ENDBRANCH   9  10
ENDBRANCH   7   9
BRANCH   7  16
ATOM     16  O   UNL     1      -7.016  62.962  34.339  1.00  0.00    -0.302 OA
ATOM     17  H   UNL     1      -7.656  62.736  33.631  1.00  0.00     0.223 HD
ENDBRANCH   7  16
ENDBRANCH   6   7
ENDBRANCH   5   6
BRANCH   4  18
ATOM     18  O   UNL     1      -5.257  63.950  38.684  1.00  0.00    -0.385 OA
ATOM     19  H   UNL     1      -4.944  64.059  39.598  1.00  0.00     0.211 HD
ENDBRANCH   4  18
BRANCH   3  20
ATOM     20  C   UNL     1      -5.794  60.056  40.598  1.00  0.00     0.208 C 
BRANCH  20  21
ATOM     21  O   UNL     1      -5.894  60.402  41.970  1.00  0.00    -0.284 OA
BRANCH  21  22
ATOM     22  P   UNL     1      -4.561  60.326  42.884  1.00  0.00     0.469 P 
ATOM     23  O   UNL     1      -4.791  59.913  44.308  1.00  0.00    -0.228 OA
BRANCH  22  24
ATOM     24  O   UNL     1      -3.876  61.777  42.686  1.00  0.00    -0.303 OA
ATOM     25  H   UNL     1      -3.360  61.952  41.870  1.00  0.00     0.223 HD
ENDBRANCH  22  24
BRANCH  22  26
ATOM     26  O   UNL     1      -3.599  59.341  42.035  1.00  0.00    -0.303 OA
ATOM     27  H   UNL     1      -3.862  59.088  41.125  1.00  0.00     0.223 HD
ENDBRANCH  22  26
ENDBRANCH  21  22
ENDBRANCH  20  21
ENDBRANCH   3  20
BRANCH   2  28
ATOM     28  O   UNL     1      -6.262  63.202  41.131  1.00  0.00    -0.387 OA
ATOM     29  H   UNL     1      -6.423  62.660  41.922  1.00  0.00     0.211 HD
ENDBRANCH   2  28
TORSDOF 14
REMARK SMILES O=c1[nH]cc(F)c(=O)[nH]1
REMARK SMILES IDX 6 1 8 2 1 3 9 4 3 5 7 6 2 7 5 8 4 9
REMARK H PARENT 9 10 3 11
REMARK Flexibility Score: inf
ROOT
ATOM      1  F   UNL     1      -1.907  57.810  37.006  1.00  0.00    -0.199 F 
ATOM      2  O   UNL     1      -2.394  58.924  39.441  1.00  0.00    -0.266 OA
ATOM      3  O   UNL     1      -2.679  63.130  37.524  1.00  0.00    -0.248 OA
ATOM      4  N   UNL     1      -2.540  61.043  38.505  1.00  0.00    -0.272 N 
ATOM      5  N   UNL     1      -2.250  61.301  36.191  1.00  0.00    -0.311 N 
ATOM      6  C   UNL     1      -2.354  59.665  38.464  1.00  0.00     0.289 A 
ATOM      7  C   UNL     1      -2.502  61.916  37.412  1.00  0.00     0.325 A 
ATOM      8  C   UNL     1      -2.095  59.138  37.110  1.00  0.00     0.204 A 
ATOM      9  C   UNL     1      -2.054  59.953  36.058  1.00  0.00     0.132 A 
ATOM     10  H   UNL     1      -2.722  61.455  39.416  1.00  0.00     0.175 HD
ATOM     11  H   UNL     1      -2.207  61.871  35.352  1.00  0.00     0.171 HD
ENDROOT
TORSDOF 0
ENDMDL
MODEL 5
REMARK VINA RESULT:    -9.375      2.863      6.079
REMARK INTER + INTRA:         -16.718
REMARK INTER:                 -14.473
REMARK INTRA:                  -2.244
REMARK UNBOUND:                -1.589
REMARK SMILES O=P(O)(O)OC[C@H]1O[C@H](O[P@@](=O)(O)OP(=O)(O)O)[C@H](O)[C@@H]1O
REMARK SMILES IDX 8 1 21 2 7 3 19 4 9 5 10 6 11 7 12 8 14 9 15 10 16 11 17 12
REMARK SMILES IDX 18 14 13 16 20 18 6 20 5 21 2 22 1 23 3 24 4 26 22 28
REMARK H PARENT 17 13 18 15 13 17 20 19 3 25 4 27 22 29
REMARK Flexibility Score: inf
ROOT
ATOM      1  O   UNL     1      -5.488  60.011  34.132  1.00  0.00    -0.341 OA
ATOM      2  C   UNL     1      -5.634  57.661  33.896  1.00  0.00     0.179 C 
ATOM      3  C   UNL     1      -6.106  58.991  33.324  1.00  0.00     0.179 C 
ATOM      4  C   UNL     1      -4.241  58.015  34.369  1.00  0.00     0.202 C 
ATOM      5  C   UNL     1      -4.500  59.388  34.975  1.00  0.00     0.293 C 
ENDROOT
BRANCH   5   6
ATOM      6  O   UNL     1      -3.303  60.139  35.065  1.00  0.00    -0.253 OA
BRANCH   6   7
ATOM      7  P   UNL     1      -3.296  61.562  35.837  1.00  0.00     0.483 P 
ATOM      8  O   UNL     1      -4.556  61.875  36.591  1.00  0.00    -0.228 OA
BRANCH   7   9
ATOM      9  O   UNL     1      -2.922  62.642  34.694  1.00  0.00    -0.185 OA
BRANCH   9  10
ATOM     10  P   UNL     1      -3.673  63.031  33.317  1.00  0.00     0.478 P 
ATOM     11  O   UNL     1      -3.211  64.314  32.693  1.00  0.00    -0.228 OA
BRANCH  10  12
ATOM     12  O   UNL     1      -5.236  62.986  33.726  1.00  0.00    -0.302 OA
ATOM     13  H   UNL     1      -5.880  62.599  33.095  1.00  0.00     0.223 HD
ENDBRANCH  10  12
BRANCH  10  14
ATOM     14  O   UNL     1      -3.484  61.711  32.403  1.00  0.00    -0.302 OA
ATOM     15  H   UNL     1      -2.593  61.500  32.052  1.00  0.00     0.223 HD
ENDBRANCH  10  14
ENDBRANCH   9  10
ENDBRANCH   7   9
BRANCH   7  16
ATOM     16  O   UNL     1      -1.963  61.516  36.754  1.00  0.00    -0.302 OA
ATOM     17  H   UNL     1      -2.043  61.694  37.715  1.00  0.00     0.223 HD
ENDBRANCH   7  16
ENDBRANCH   6   7
ENDBRANCH   5   6
BRANCH   4  18
ATOM     18  O   UNL     1      -3.368  58.126  33.248  1.00  0.00    -0.385 OA
ATOM     19  H   UNL     1      -3.842  57.839  32.449  1.00  0.00     0.211 HD
ENDBRANCH   4  18
BRANCH   3  20
ATOM     20  C   UNL     1      -7.615  59.157  33.357  1.00  0.00     0.208 C 
BRANCH  20  21
ATOM     21  O   UNL     1      -8.030  59.294  34.706  1.00  0.00    -0.284 OA
BRANCH  21  22
ATOM     22  P   UNL     1      -8.676  60.702  35.175  1.00  0.00     0.469 P 
ATOM     23  O   UNL     1      -9.610  60.614  36.346  1.00  0.00    -0.228 OA
BRANCH  22  24
ATOM     24  O   UNL     1      -9.322  61.299  33.819  1.00  0.00    -0.303 OA
ATOM     25  H   UNL     1      -8.939  62.114  33.429  1.00  0.00     0.223 HD
ENDBRANCH  22  24
BRANCH  22  26
ATOM     26  O   UNL     1      -7.374  61.634  35.410  1.00  0.00    -0.303 OA
ATOM     27  H   UNL     1      -7.237  62.045  36.290  1.00  0.00     0.223 HD
ENDBRANCH  22  26
ENDBRANCH  21  22
ENDBRANCH  20  21
ENDBRANCH   3  20
BRANCH   2  28
ATOM     28  O   UNL     1      -5.654  56.633  32.929  1.00  0.00    -0.387 OA
ATOM     29  H   UNL     1      -5.809  57.045  32.063  1.00  0.00     0.211 HD
ENDBRANCH   2  28
TORSDOF 14
REMARK SMILES O=c1[nH]cc(F)c(=O)[nH]1
REMARK SMILES IDX 6 1 8 2 1 3 9 4 3 5 7 6 2 7 5 8 4 9
REMARK H PARENT 9 10 3 11
REMARK Flexibility Score: inf
ROOT
ATOM      1  F   UNL     1      -5.138  60.083  40.262  1.00  0.00    -0.199 F 
ATOM      2  O   UNL     1      -3.504  59.494  42.357  1.00  0.00    -0.266 OA
ATOM      3  O   UNL     1      -0.246  57.942  39.455  1.00  0.00    -0.248 OA
ATOM      4  N   UNL     1      -1.856  58.709  40.924  1.00  0.00    -0.272 N 
ATOM      5  N   UNL     1      -2.232  58.747  38.608  1.00  0.00    -0.311 N 
ATOM      6  C   UNL     1      -3.098  59.259  41.224  1.00  0.00     0.289 A 
ATOM      7  C   UNL     1      -1.362  58.429  39.645  1.00  0.00     0.325 A 
ATOM      8  C   UNL     1      -3.925  59.549  40.036  1.00  0.00     0.204 A 
ATOM      9  C   UNL     1      -3.472  59.289  38.811  1.00  0.00     0.132 A 
ATOM     10  H   UNL     1      -1.248  58.491  41.709  1.00  0.00     0.175 HD
ATOM     11  H   UNL     1      -1.943  58.570  37.651  1.00  0.00     0.171 HD
ENDROOT
TORSDOF 0
ENDMDL
MODEL 6
REMARK VINA RESULT:    -9.340      2.463      6.044
REMARK INTER + INTRA:         -16.663
REMARK INTER:                 -15.653
REMARK INTRA:                  -1.010
REMARK UNBOUND:                -1.589
REMARK SMILES O=P(O)(O)OC[C@H]1O[C@H](O[P@@](=O)(O)OP(=O)(O)O)[C@H](O)[C@@H]1O
REMARK SMILES IDX 8 1 21 2 7 3 19 4 9 5 10 6 11 7 12 8 14 9 15 10 16 11 17 12
REMARK SMILES IDX 18 14 13 16 20 18 6 20 5 21 2 22 1 23 3 24 4 26 22 28
REMARK H PARENT 17 13 18 15 13 17 20 19 3 25 4 27 22 29
REMARK Flexibility Score: inf
ROOT
ATOM      1  O   UNL     1      -5.128  59.993  36.048  1.00  0.00    -0.341 OA
ATOM      2  C   UNL     1      -5.604  58.068  34.756  1.00  0.00     0.179 C 
ATOM      3  C   UNL     1      -4.724  59.308  34.847  1.00  0.00     0.179 C 
ATOM      4  C   UNL     1      -5.800  57.732  36.218  1.00  0.00     0.202 C 
ATOM      5  C   UNL     1      -6.004  59.126  36.794  1.00  0.00     0.293 C 
ENDROOT
BRANCH   5   6
ATOM      6  O   UNL     1      -5.741  59.146  38.186  1.00  0.00    -0.253 OA
BRANCH   6   7
ATOM      7  P   UNL     1      -6.679  60.020  39.174  1.00  0.00     0.483 P 
ATOM      8  O   UNL     1      -8.151  59.926  38.893  1.00  0.00    -0.228 OA
BRANCH   7   9
ATOM      9  O   UNL     1      -6.081  61.520  39.079  1.00  0.00    -0.185 OA
BRANCH   9  10
ATOM     10  P   UNL     1      -6.669  62.853  38.382  1.00  0.00     0.478 P 
ATOM     11  O   UNL     1      -8.073  63.200  38.777  1.00  0.00    -0.228 OA
BRANCH  10  12
ATOM     12  O   UNL     1      -6.445  62.572  36.806  1.00  0.00    -0.302 OA
ATOM     13  H   UNL     1      -6.677  63.273  36.161  1.00  0.00     0.223 HD
ENDBRANCH  10  12
BRANCH  10  14
ATOM     14  O   UNL     1      -5.557  63.975  38.726  1.00  0.00    -0.302 OA
ATOM     15  H   UNL     1      -5.373  64.189  39.666  1.00  0.00     0.223 HD
ENDBRANCH  10  14
ENDBRANCH   9  10
ENDBRANCH   7   9
BRANCH   7  16
ATOM     16  O   UNL     1      -6.251  59.544  40.660  1.00  0.00    -0.302 OA
ATOM     17  H   UNL     1      -5.305  59.578  40.915  1.00  0.00     0.223 HD
ENDBRANCH   7  16
ENDBRANCH   6   7
ENDBRANCH   5   6
BRANCH   4  18
ATOM     18  O   UNL     1      -4.608  57.150  36.740  1.00  0.00    -0.385 OA
ATOM     19  H   UNL     1      -4.190  56.611  36.047  1.00  0.00     0.211 HD
ENDBRANCH   4  18
BRANCH   3  20
ATOM     20  C   UNL     1      -4.870  60.236  33.654  1.00  0.00     0.208 C 
BRANCH  20  21
ATOM     21  O   UNL     1      -4.510  61.549  34.050  1.00  0.00    -0.284 OA
BRANCH  21  22
ATOM     22  P   UNL     1      -3.799  62.515  32.963  1.00  0.00     0.469 P 
ATOM     23  O   UNL     1      -4.535  63.789  32.669  1.00  0.00    -0.228 OA
BRANCH  22  24
ATOM     24  O   UNL     1      -3.557  61.548  31.691  1.00  0.00    -0.303 OA
ATOM     25  H   UNL     1      -3.668  61.914  30.787  1.00  0.00     0.223 HD
ENDBRANCH  22  24
BRANCH  22  26
ATOM     26  O   UNL     1      -2.313  62.709  33.571  1.00  0.00    -0.303 OA
ATOM     27  H   UNL     1      -1.842  61.928  33.932  1.00  0.00     0.223 HD
ENDBRANCH  22  26
ENDBRANCH  21  22
ENDBRANCH  20  21
ENDBRANCH   3  20
BRANCH   2  28
ATOM     28  O   UNL     1      -4.988  57.034  34.020  1.00  0.00    -0.387 OA
ATOM     29  H   UNL     1      -4.483  57.446  33.298  1.00  0.00     0.211 HD
ENDBRANCH   2  28
TORSDOF 14
REMARK SMILES O=c1[nH]cc(F)c(=O)[nH]1
REMARK SMILES IDX 6 1 8 2 1 3 9 4 3 5 7 6 2 7 5 8 4 9
REMARK H PARENT 9 10 3 11
REMARK Flexibility Score: inf
ROOT
ATOM      1  F   UNL     1      -1.294  58.106  37.780  1.00  0.00    -0.199 F 
ATOM      2  O   UNL     1      -2.824  59.312  39.681  1.00  0.00    -0.266 OA
ATOM      3  O   UNL     1      -3.388  63.016  36.959  1.00  0.00    -0.248 OA
ATOM      4  N   UNL     1      -3.121  61.180  38.337  1.00  0.00    -0.272 N 
ATOM      5  N   UNL     1      -2.125  61.239  36.212  1.00  0.00    -0.311 N 
ATOM      6  C   UNL     1      -2.623  59.915  38.632  1.00  0.00     0.289 A 
ATOM      7  C   UNL     1      -2.912  61.896  37.152  1.00  0.00     0.325 A 
ATOM      8  C   UNL     1      -1.804  59.330  37.553  1.00  0.00     0.204 A 
ATOM      9  C   UNL     1      -1.594  59.995  36.419  1.00  0.00     0.132 A 
ATOM     10  H   UNL     1      -3.692  61.628  39.049  1.00  0.00     0.175 HD
ATOM     11  H   UNL     1      -1.929  61.697  35.327  1.00  0.00     0.171 HD
ENDROOT
TORSDOF 0
ENDMDL
MODEL 7
REMARK VINA RESULT:    -9.326      1.697      2.143
REMARK INTER + INTRA:         -16.640
REMARK INTER:                 -15.922
REMARK INTRA:                  -0.718
REMARK UNBOUND:                -1.589
REMARK SMILES O=P(O)(O)OC[C@H]1O[C@H](O[P@@](=O)(O)OP(=O)(O)O)[C@H](O)[C@@H]1O
REMARK SMILES IDX 8 1 21 2 7 3 19 4 9 5 10 6 11 7 12 8 14 9 15 10 16 11 17 12
REMARK SMILES IDX 18 14 13 16 20 18 6 20 5 21 2 22 1 23 3 24 4 26 22 28
REMARK H PARENT 17 13 18 15 13 17 20 19 3 25 4 27 22 29
REMARK Flexibility Score: inf
ROOT
ATOM      1  O   UNL     1      -5.697  61.530  37.739  1.00  0.00    -0.341 OA
ATOM      2  C   UNL     1      -6.368  62.250  39.892  1.00  0.00     0.179 C 
ATOM      3  C   UNL     1      -5.226  61.630  39.097  1.00  0.00     0.179 C 
ATOM      4  C   UNL     1      -6.991  63.163  38.859  1.00  0.00     0.202 C 
ATOM      5  C   UNL     1      -6.930  62.266  37.630  1.00  0.00     0.293 C 
ENDROOT
BRANCH   5   6
ATOM      6  O   UNL     1      -7.011  63.028  36.439  1.00  0.00    -0.253 OA
BRANCH   6   7
ATOM      7  P   UNL     1      -6.710  62.331  35.009  1.00  0.00     0.483 P 
ATOM      8  O   UNL     1      -7.268  60.945  34.855  1.00  0.00    -0.228 OA
BRANCH   7   9
ATOM      9  O   UNL     1      -5.104  62.420  34.845  1.00  0.00    -0.185 OA
BRANCH   9  10
ATOM     10  P   UNL     1      -4.185  62.698  33.546  1.00  0.00     0.478 P 
ATOM     11  O   UNL     1      -4.716  63.748  32.616  1.00  0.00    -0.228 OA
BRANCH  10  12
ATOM     12  O   UNL     1      -4.010  61.227  32.899  1.00  0.00    -0.302 OA
ATOM     13  H   UNL     1      -3.260  61.063  32.289  1.00  0.00     0.223 HD
ENDBRANCH  10  12
BRANCH  10  14
ATOM     14  O   UNL     1      -2.729  63.006  34.178  1.00  0.00    -0.302 OA
ATOM     15  H   UNL     1      -1.953  63.058  33.581  1.00  0.00     0.223 HD
ENDBRANCH  10  14
ENDBRANCH   9  10
ENDBRANCH   7   9
BRANCH   7  16
ATOM     16  O   UNL     1      -7.254  63.395  33.919  1.00  0.00    -0.302 OA
ATOM     17  H   UNL     1      -7.079  64.350  34.061  1.00  0.00     0.223 HD
ENDBRANCH   7  16
ENDBRANCH   6   7
ENDBRANCH   5   6
BRANCH   4  18
ATOM     18  O   UNL     1      -6.167  64.312  38.675  1.00  0.00    -0.385 OA
ATOM     19  H   UNL     1      -5.657  64.206  37.855  1.00  0.00     0.211 HD
ENDBRANCH   4  18
BRANCH   3  20
ATOM     20  C   UNL     1      -4.821  60.256  39.600  1.00  0.00     0.208 C 
BRANCH  20  21
ATOM     21  O   UNL     1      -3.468  60.304  40.022  1.00  0.00    -0.284 OA
BRANCH  21  22
ATOM     22  P   UNL     1      -2.870  59.041  40.838  1.00  0.00     0.469 P 
ATOM     23  O   UNL     1      -1.535  58.549  40.358  1.00  0.00    -0.228 OA
BRANCH  22  24
ATOM     24  O   UNL     1      -4.064  57.953  40.793  1.00  0.00    -0.303 OA
ATOM     25  H   UNL     1      -4.966  58.225  41.070  1.00  0.00     0.223 HD
ENDBRANCH  22  24
BRANCH  22  26
ATOM     26  O   UNL     1      -2.895  59.558  42.371  1.00  0.00    -0.303 OA
ATOM     27  H   UNL     1      -2.068  59.522  42.897  1.00  0.00     0.223 HD
ENDBRANCH  22  26
ENDBRANCH  21  22
ENDBRANCH  20  21
ENDBRANCH   3  20
BRANCH   2  28
ATOM     28  O   UNL     1      -5.906  62.931  41.038  1.00  0.00    -0.387 OA
ATOM     29  H   UNL     1      -6.500  63.684  41.194  1.00  0.00     0.211 HD
ENDBRANCH   2  28
TORSDOF 14
REMARK SMILES O=c1[nH]cc(F)c(=O)[nH]1
REMARK SMILES IDX 6 1 8 2 1 3 9 4 3 5 7 6 2 7 5 8 4 9
REMARK H PARENT 9 10 3 11
REMARK Flexibility Score: inf
ROOT
ATOM      1  F   UNL     1      -3.309  56.765  35.858  1.00  0.00    -0.199 F 
ATOM      2  O   UNL     1      -4.659  58.825  34.697  1.00  0.00    -0.266 OA
ATOM      3  O   UNL     1      -2.169  61.893  37.111  1.00  0.00    -0.248 OA
ATOM      4  N   UNL     1      -3.426  60.382  35.896  1.00  0.00    -0.272 N 
ATOM      5  N   UNL     1      -1.774  59.640  37.388  1.00  0.00    -0.311 N 
ATOM      6  C   UNL     1      -3.785  59.094  35.514  1.00  0.00     0.289 A 
ATOM      7  C   UNL     1      -2.434  60.725  36.822  1.00  0.00     0.325 A 
ATOM      8  C   UNL     1      -3.009  58.034  36.187  1.00  0.00     0.204 A 
ATOM      9  C   UNL     1      -2.062  58.341  37.071  1.00  0.00     0.132 A 
ATOM     10  H   UNL     1      -3.932  61.149  35.460  1.00  0.00     0.175 HD
ATOM     11  H   UNL     1      -1.041  59.811  38.070  1.00  0.00     0.171 HD
ENDROOT
TORSDOF 0
ENDMDL
MODEL 8
REMARK VINA RESULT:    -9.306      7.737      8.442
REMARK INTER + INTRA:         -16.608
REMARK INTER:                 -15.655
REMARK INTRA:                  -0.953
REMARK UNBOUND:                -1.589
REMARK SMILES O=P(O)(O)OC[C@H]1O[C@H](O[P@@](=O)(O)OP(=O)(O)O)[C@H](O)[C@@H]1O
REMARK SMILES IDX 8 1 21 2 7 3 19 4 9 5 10 6 11 7 12 8 14 9 15 10 16 11 17 12
REMARK SMILES IDX 18 14 13 16 20 18 6 20 5 21 2 22 1 23 3 24 4 26 22 28
REMARK H PARENT 17 13 18 15 13 17 20 19 3 25 4 27 22 29
REMARK Flexibility Score: inf
ROOT
ATOM      1  O   UNL     1      -3.233  60.142  38.654  1.00  0.00    -0.341 OA
ATOM      2  C   UNL     1      -1.324  58.743  38.716  1.00  0.00     0.179 C 
ATOM      3  C   UNL     1      -2.615  59.105  39.441  1.00  0.00     0.179 C 
ATOM      4  C   UNL     1      -1.721  58.959  37.272  1.00  0.00     0.202 C 
ATOM      5  C   UNL     1      -2.530  60.242  37.400  1.00  0.00     0.293 C 
ENDROOT
BRANCH   5   6
ATOM      6  O   UNL     1      -3.401  60.408  36.295  1.00  0.00    -0.253 OA
BRANCH   6   7
ATOM      7  P   UNL     1      -3.808  61.894  35.800  1.00  0.00     0.483 P 
ATOM      8  O   UNL     1      -5.171  62.352  36.234  1.00  0.00    -0.228 OA
BRANCH   7   9
ATOM      9  O   UNL     1      -3.600  61.859  34.197  1.00  0.00    -0.185 OA
BRANCH   9  10
ATOM     10  P   UNL     1      -3.564  63.050  33.106  1.00  0.00     0.478 P 
ATOM     11  O   UNL     1      -4.859  63.787  32.940  1.00  0.00    -0.228 OA
BRANCH  10  12
ATOM     12  O   UNL     1      -3.013  62.314  31.777  1.00  0.00    -0.302 OA
ATOM     13  H   UNL     1      -2.075  62.441  31.518  1.00  0.00     0.223 HD
ENDBRANCH  10  12
BRANCH  10  14
ATOM     14  O   UNL     1      -2.311  63.954  33.583  1.00  0.00    -0.302 OA
ATOM     15  H   UNL     1      -1.466  63.512  33.813  1.00  0.00     0.223 HD
ENDBRANCH  10  14
ENDBRANCH   9  10
ENDBRANCH   7   9
BRANCH   7  16
ATOM     16  O   UNL     1      -2.594  62.835  36.311  1.00  0.00    -0.302 OA
ATOM     17  H   UNL     1      -1.908  62.447  36.894  1.00  0.00     0.223 HD
ENDBRANCH   7  16
ENDBRANCH   6   7
ENDBRANCH   5   6
BRANCH   4  18
ATOM     18  O   UNL     1      -2.556  57.887  36.839  1.00  0.00    -0.385 OA
ATOM     19  H   UNL     1      -3.485  58.167  36.901  1.00  0.00     0.211 HD
ENDBRANCH   4  18
BRANCH   3  20
ATOM     20  C   UNL     1      -2.388  59.605  40.856  1.00  0.00     0.208 C 
BRANCH  20  21
ATOM     21  O   UNL     1      -3.344  59.003  41.713  1.00  0.00    -0.284 OA
BRANCH  21  22
ATOM     22  P   UNL     1      -4.528  59.927  42.317  1.00  0.00     0.469 P 
ATOM     23  O   UNL     1      -5.372  59.268  43.368  1.00  0.00    -0.228 OA
BRANCH  22  24
ATOM     24  O   UNL     1      -5.326  60.435  41.007  1.00  0.00    -0.303 OA
ATOM     25  H   UNL     1      -5.007  60.162  40.120  1.00  0.00     0.223 HD
ENDBRANCH  22  24
BRANCH  22  26
ATOM     26  O   UNL     1      -3.737  61.250  42.808  1.00  0.00    -0.303 OA
ATOM     27  H   UNL     1      -4.073  61.742  43.586  1.00  0.00     0.223 HD
ENDBRANCH  22  26
ENDBRANCH  21  22
ENDBRANCH  20  21
ENDBRANCH   3  20
BRANCH   2  28
ATOM     28  O   UNL     1      -0.915  57.422  38.995  1.00  0.00    -0.387 OA
ATOM     29  H   UNL     1      -1.696  56.927  39.295  1.00  0.00     0.211 HD
ENDBRANCH   2  28
TORSDOF 14
REMARK SMILES O=c1[nH]cc(F)c(=O)[nH]1
REMARK SMILES IDX 6 1 8 2 1 3 9 4 3 5 7 6 2 7 5 8 4 9
REMARK H PARENT 9 10 3 11
REMARK Flexibility Score: inf
ROOT
ATOM      1  F   UNL     1       3.271  46.062  40.848  1.00  0.00    -0.199 F 
ATOM      2  O   UNL     1       1.166  44.438  41.434  1.00  0.00    -0.266 OA
ATOM      3  O   UNL     1      -0.999  45.746  37.556  1.00  0.00    -0.248 OA
ATOM      4  N   UNL     1       0.060  45.078  39.498  1.00  0.00    -0.272 N 
ATOM      5  N   UNL     1       1.070  46.630  38.055  1.00  0.00    -0.311 N 
ATOM      6  C   UNL     1       1.118  45.097  40.401  1.00  0.00     0.289 A 
ATOM      7  C   UNL     1      -0.027  45.815  38.311  1.00  0.00     0.325 A 
ATOM      8  C   UNL     1       2.218  46.001  40.014  1.00  0.00     0.204 A 
ATOM      9  C   UNL     1       2.152  46.711  38.889  1.00  0.00     0.132 A 
ATOM     10  H   UNL     1      -0.724  44.470  39.720  1.00  0.00     0.175 HD
ATOM     11  H   UNL     1       1.078  47.195  37.212  1.00  0.00     0.171 HD
ENDROOT
TORSDOF 0
ENDMDL
MODEL 9
REMARK VINA RESULT:    -9.289      1.930      3.531
REMARK INTER + INTRA:         -16.581
REMARK INTER:                 -14.985
REMARK INTRA:                  -1.596
REMARK UNBOUND:                -1.589
REMARK SMILES O=P(O)(O)OC[C@H]1O[C@H](O[P@@](=O)(O)OP(=O)(O)O)[C@H](O)[C@@H]1O
REMARK SMILES IDX 8 1 21 2 7 3 19 4 9 5 10 6 11 7 12 8 14 9 15 10 16 11 17 12
REMARK SMILES IDX 18 14 13 16 20 18 6 20 5 21 2 22 1 23 3 24 4 26 22 28
REMARK H PARENT 17 13 18 15 13 17 20 19 3 25 4 27 22 29
REMARK Flexibility Score: inf
ROOT
ATOM      1  O   UNL     1      -4.155  60.202  37.836  1.00  0.00    -0.341 OA
ATOM      2  C   UNL     1      -2.222  59.428  38.962  1.00  0.00     0.179 C 
ATOM      3  C   UNL     1      -3.744  59.464  39.004  1.00  0.00     0.179 C 
ATOM      4  C   UNL     1      -1.964  59.389  37.471  1.00  0.00     0.202 C 
ATOM      5  C   UNL     1      -3.006  60.387  36.987  1.00  0.00     0.293 C 
ENDROOT
BRANCH   5   6
ATOM      6  O   UNL     1      -3.301  60.192  35.615  1.00  0.00    -0.253 OA
BRANCH   6   7
ATOM      7  P   UNL     1      -4.262  61.236  34.837  1.00  0.00     0.483 P 
ATOM      8  O   UNL     1      -5.175  60.614  33.820  1.00  0.00    -0.228 OA
BRANCH   7   9
ATOM      9  O   UNL     1      -3.252  62.344  34.231  1.00  0.00    -0.185 OA
BRANCH   9  10
ATOM     10  P   UNL     1      -3.279  63.150  32.831  1.00  0.00     0.478 P 
ATOM     11  O   UNL     1      -2.254  64.240  32.716  1.00  0.00    -0.228 OA
BRANCH  10  12
ATOM     12  O   UNL     1      -4.817  63.633  32.716  1.00  0.00    -0.302 OA
ATOM     13  H   UNL     1      -5.479  63.021  32.330  1.00  0.00     0.223 HD
ENDBRANCH  10  12
BRANCH  10  14
ATOM     14  O   UNL     1      -3.168  61.978  31.724  1.00  0.00    -0.302 OA
ATOM     15  H   UNL     1      -2.968  61.063  32.018  1.00  0.00     0.223 HD
ENDBRANCH  10  14
ENDBRANCH   9  10
ENDBRANCH   7   9
BRANCH   7  16
ATOM     16  O   UNL     1      -5.026  62.037  36.017  1.00  0.00    -0.302 OA
ATOM     17  H   UNL     1      -4.856  62.997  36.127  1.00  0.00     0.223 HD
ENDBRANCH   7  16
ENDBRANCH   6   7
ENDBRANCH   5   6
BRANCH   4  18
ATOM     18  O   UNL     1      -2.256  58.086  36.970  1.00  0.00    -0.385 OA
ATOM     19  H   UNL     1      -1.427  57.584  36.893  1.00  0.00     0.211 HD
ENDBRANCH   4  18
BRANCH   3  20
ATOM     20  C   UNL     1      -4.294  60.134  40.251  1.00  0.00     0.208 C 
BRANCH  20  21
ATOM     21  O   UNL     1      -3.673  61.400  40.402  1.00  0.00    -0.284 OA
BRANCH  21  22
ATOM     22  P   UNL     1      -4.585  62.729  40.254  1.00  0.00     0.469 P 
ATOM     23  O   UNL     1      -6.007  62.576  40.711  1.00  0.00    -0.228 OA
BRANCH  22  24
ATOM     24  O   UNL     1      -4.398  63.154  38.706  1.00  0.00    -0.303 OA
ATOM     25  H   UNL     1      -5.018  62.794  38.036  1.00  0.00     0.223 HD
ENDBRANCH  22  24
BRANCH  22  26
ATOM     26  O   UNL     1      -3.729  63.844  41.053  1.00  0.00    -0.303 OA
ATOM     27  H   UNL     1      -3.040  63.550  41.687  1.00  0.00     0.223 HD
ENDBRANCH  22  26
ENDBRANCH  21  22
ENDBRANCH  20  21
ENDBRANCH   3  20
BRANCH   2  28
ATOM     28  O   UNL     1      -1.700  58.314  39.652  1.00  0.00    -0.387 OA
ATOM     29  H   UNL     1      -1.375  58.625  40.514  1.00  0.00     0.211 HD
ENDBRANCH   2  28
TORSDOF 14
REMARK SMILES O=c1[nH]cc(F)c(=O)[nH]1
REMARK SMILES IDX 6 1 8 2 1 3 9 4 3 5 7 6 2 7 5 8 4 9
REMARK H PARENT 9 10 3 11
REMARK Flexibility Score: inf
ROOT
ATOM      1  F   UNL     1      -4.761  56.105  32.672  1.00  0.00    -0.199 F 
ATOM      2  O   UNL     1      -3.358  56.366  34.990  1.00  0.00    -0.266 OA
ATOM      3  O   UNL     1      -6.811  58.811  36.872  1.00  0.00    -0.248 OA
ATOM      4  N   UNL     1      -5.073  57.595  35.955  1.00  0.00    -0.272 N 
ATOM      5  N   UNL     1      -7.015  58.033  34.713  1.00  0.00    -0.311 N 
ATOM      6  C   UNL     1      -4.469  56.881  34.926  1.00  0.00     0.289 A 
ATOM      7  C   UNL     1      -6.338  58.193  35.917  1.00  0.00     0.325 A 
ATOM      8  C   UNL     1      -5.292  56.784  33.704  1.00  0.00     0.204 A 
ATOM      9  C   UNL     1      -6.497  57.348  33.648  1.00  0.00     0.132 A 
ATOM     10  H   UNL     1      -4.546  57.690  36.820  1.00  0.00     0.175 HD
ATOM     11  H   UNL     1      -7.940  58.441  34.610  1.00  0.00     0.171 HD
ENDROOT
TORSDOF 0
ENDMDL
MODEL 10
REMARK VINA RESULT:    -9.278      7.688     10.089
REMARK INTER + INTRA:         -16.562
REMARK INTER:                 -15.379
REMARK INTRA:                  -1.183
REMARK UNBOUND:                -1.589
REMARK SMILES O=P(O)(O)OC[C@H]1O[C@H](O[P@@](=O)(O)OP(=O)(O)O)[C@H](O)[C@@H]1O
REMARK SMILES IDX 8 1 21 2 7 3 19 4 9 5 10 6 11 7 12 8 14 9 15 10 16 11 17 12
REMARK SMILES IDX 18 14 13 16 20 18 6 20 5 21 2 22 1 23 3 24 4 26 22 28
REMARK H PARENT 17 13 18 15 13 17 20 19 3 25 4 27 22 29
REMARK Flexibility Score: inf
ROOT
ATOM      1  O   UNL     1      -3.448  59.308  35.097  1.00  0.00    -0.341 OA
ATOM      2  C   UNL     1      -5.226  57.890  34.443  1.00  0.00     0.179 C 
ATOM      3  C   UNL     1      -4.303  59.008  33.977  1.00  0.00     0.179 C 
ATOM      4  C   UNL     1      -4.323  57.130  35.389  1.00  0.00     0.202 C 
ATOM      5  C   UNL     1      -3.633  58.288  36.097  1.00  0.00     0.293 C 
ENDROOT
BRANCH   5   6
ATOM      6  O   UNL     1      -2.415  57.871  36.688  1.00  0.00    -0.253 OA
BRANCH   6   7
ATOM      7  P   UNL     1      -1.623  58.861  37.695  1.00  0.00     0.483 P 
ATOM      8  O   UNL     1      -0.317  58.325  38.207  1.00  0.00    -0.228 OA
BRANCH   7   9
ATOM      9  O   UNL     1      -2.698  59.206  38.853  1.00  0.00    -0.185 OA
BRANCH   9  10
ATOM     10  P   UNL     1      -2.639  58.987  40.452  1.00  0.00     0.478 P 
ATOM     11  O   UNL     1      -2.535  60.250  41.254  1.00  0.00    -0.228 OA
BRANCH  10  12
ATOM     12  O   UNL     1      -1.414  57.950  40.636  1.00  0.00    -0.302 OA
ATOM     13  H   UNL     1      -0.753  58.116  41.342  1.00  0.00     0.223 HD
ENDBRANCH  10  12
BRANCH  10  14
ATOM     14  O   UNL     1      -3.946  58.084  40.753  1.00  0.00    -0.302 OA
ATOM     15  H   UNL     1      -4.812  58.528  40.877  1.00  0.00     0.223 HD
ENDBRANCH  10  14
ENDBRANCH   9  10
ENDBRANCH   7   9
BRANCH   7  16
ATOM     16  O   UNL     1      -1.500  60.251  36.877  1.00  0.00    -0.302 OA
ATOM     17  H   UNL     1      -1.386  61.088  37.378  1.00  0.00     0.223 HD
ENDBRANCH   7  16
ENDBRANCH   6   7
ENDBRANCH   5   6
BRANCH   4  18
ATOM     18  O   UNL     1      -3.375  56.372  34.640  1.00  0.00    -0.385 OA
ATOM     19  H   UNL     1      -3.305  56.748  33.747  1.00  0.00     0.211 HD
ENDBRANCH   4  18
BRANCH   3  20
ATOM     20  C   UNL     1      -5.047  60.262  33.552  1.00  0.00     0.208 C 
BRANCH  20  21
ATOM     21  O   UNL     1      -4.322  60.894  32.510  1.00  0.00    -0.284 OA
BRANCH  21  22
ATOM     22  P   UNL     1      -3.671  62.348  32.795  1.00  0.00     0.469 P 
ATOM     23  O   UNL     1      -4.659  63.469  32.931  1.00  0.00    -0.228 OA
BRANCH  22  24
ATOM     24  O   UNL     1      -2.586  62.522  31.610  1.00  0.00    -0.303 OA
ATOM     25  H   UNL     1      -2.412  63.420  31.253  1.00  0.00     0.223 HD
ENDBRANCH  22  24
BRANCH  22  26
ATOM     26  O   UNL     1      -2.756  62.083  34.102  1.00  0.00    -0.303 OA
ATOM     27  H   UNL     1      -2.126  61.331  34.096  1.00  0.00     0.223 HD
ENDBRANCH  22  26
ENDBRANCH  21  22
ENDBRANCH  20  21
ENDBRANCH   3  20
BRANCH   2  28
ATOM     28  O   UNL     1      -5.696  57.109  33.366  1.00  0.00    -0.387 OA
ATOM     29  H   UNL     1      -4.973  57.030  32.720  1.00  0.00     0.211 HD
ENDBRANCH   2  28
TORSDOF 14
REMARK SMILES O=c1[nH]cc(F)c(=O)[nH]1
REMARK SMILES IDX 6 1 8 2 1 3 9 4 3 5 7 6 2 7 5 8 4 9
REMARK H PARENT 9 10 3 11
REMARK Flexibility Score: inf
ROOT
ATOM      1  F   UNL     1       3.273  45.984  40.848  1.00  0.00    -0.199 F 
ATOM      2  O   UNL     1       1.132  44.399  41.405  1.00  0.00    -0.266 OA
ATOM      3  O   UNL     1      -1.000  45.824  37.550  1.00  0.00    -0.248 OA
ATOM      4  N   UNL     1       0.042  45.098  39.480  1.00  0.00    -0.272 N 
ATOM      5  N   UNL     1       1.088  46.651  38.065  1.00  0.00    -0.311 N 
ATOM      6  C   UNL     1       1.099  45.077  40.384  1.00  0.00     0.289 A 
ATOM      7  C   UNL     1      -0.028  45.858  38.306  1.00  0.00     0.325 A 
ATOM      8  C   UNL     1       2.220  45.962  40.012  1.00  0.00     0.204 A 
ATOM      9  C   UNL     1       2.171  46.693  38.900  1.00  0.00     0.132 A 
ATOM     10  H   UNL     1      -0.756  44.505  39.691  1.00  0.00     0.175 HD
ATOM     11  H   UNL     1       1.109  47.231  37.232  1.00  0.00     0.171 HD
ENDROOT
TORSDOF 0
ENDMDL
MODEL 11
REMARK VINA RESULT:    -9.239      7.625      7.948
REMARK INTER + INTRA:         -16.499
REMARK INTER:                 -15.364
REMARK INTRA:                  -1.135
REMARK UNBOUND:                -1.589
REMARK SMILES O=P(O)(O)OC[C@H]1O[C@H](O[P@@](=O)(O)OP(=O)(O)O)[C@H](O)[C@@H]1O
REMARK SMILES IDX 8 1 21 2 7 3 19 4 9 5 10 6 11 7 12 8 14 9 15 10 16 11 17 12
REMARK SMILES IDX 18 14 13 16 20 18 6 20 5 21 2 22 1 23 3 24 4 26 22 28
REMARK H PARENT 17 13 18 15 13 17 20 19 3 25 4 27 22 29
REMARK Flexibility Score: inf
ROOT
ATOM      1  O   UNL     1      -3.240  61.945  38.518  1.00  0.00    -0.341 OA
ATOM      2  C   UNL     1      -4.760  62.492  40.248  1.00  0.00     0.179 C 
ATOM      3  C   UNL     1      -3.285  62.319  39.909  1.00  0.00     0.179 C 
ATOM      4  C   UNL     1      -5.310  63.009  38.937  1.00  0.00     0.202 C 
ATOM      5  C   UNL     1      -4.553  62.124  37.956  1.00  0.00     0.293 C 
ENDROOT
BRANCH   5   6
ATOM      6  O   UNL     1      -4.522  62.706  36.664  1.00  0.00    -0.253 OA
BRANCH   6   7
ATOM      7  P   UNL     1      -4.593  61.764  35.350  1.00  0.00     0.483 P 
ATOM      8  O   UNL     1      -4.368  60.302  35.610  1.00  0.00    -0.228 OA
BRANCH   7   9
ATOM      9  O   UNL     1      -3.536  62.424  34.320  1.00  0.00    -0.185 OA
BRANCH   9  10
ATOM     10  P   UNL     1      -3.730  62.987  32.818  1.00  0.00     0.478 P 
ATOM     11  O   UNL     1      -3.762  61.931  31.753  1.00  0.00    -0.228 OA
BRANCH  10  12
ATOM     12  O   UNL     1      -2.541  64.073  32.677  1.00  0.00    -0.302 OA
ATOM     13  H   UNL     1      -1.727  63.825  32.189  1.00  0.00     0.223 HD
ENDBRANCH  10  12
BRANCH  10  14
ATOM     14  O   UNL     1      -5.061  63.897  32.929  1.00  0.00    -0.302 OA
ATOM     15  H   UNL     1      -4.986  64.806  33.291  1.00  0.00     0.223 HD
ENDBRANCH  10  14
ENDBRANCH   9  10
ENDBRANCH   7   9
BRANCH   7  16
ATOM     16  O   UNL     1      -6.026  62.110  34.684  1.00  0.00    -0.302 OA
ATOM     17  H   UNL     1      -6.250  61.721  33.811  1.00  0.00     0.223 HD
ENDBRANCH   7  16
ENDBRANCH   6   7
ENDBRANCH   5   6
BRANCH   4  18
ATOM     18  O   UNL     1      -4.935  64.374  38.764  1.00  0.00    -0.385 OA
ATOM     19  H   UNL     1      -5.658  64.846  38.319  1.00  0.00     0.211 HD
ENDBRANCH   4  18
BRANCH   3  20
ATOM     20  C   UNL     1      -2.597  61.256  40.747  1.00  0.00     0.208 C 
BRANCH  20  21
ATOM     21  O   UNL     1      -3.577  60.357  41.239  1.00  0.00    -0.284 OA
BRANCH  21  22
ATOM     22  P   UNL     1      -3.522  58.814  40.752  1.00  0.00     0.469 P 
ATOM     23  O   UNL     1      -4.759  58.015  41.036  1.00  0.00    -0.228 OA
BRANCH  22  24
ATOM     24  O   UNL     1      -2.164  58.249  41.422  1.00  0.00    -0.303 OA
ATOM     25  H   UNL     1      -1.309  58.401  40.966  1.00  0.00     0.223 HD
ENDBRANCH  22  24
BRANCH  22  26
ATOM     26  O   UNL     1      -3.138  58.944  39.187  1.00  0.00    -0.303 OA
ATOM     27  H   UNL     1      -2.208  59.133  38.940  1.00  0.00     0.223 HD
ENDBRANCH  22  26
ENDBRANCH  21  22
ENDBRANCH  20  21
ENDBRANCH   3  20
BRANCH   2  28
ATOM     28  O   UNL     1      -4.954  63.380  41.327  1.00  0.00    -0.387 OA
ATOM     29  H   UNL     1      -5.554  62.950  41.960  1.00  0.00     0.211 HD
ENDBRANCH   2  28
TORSDOF 14
REMARK SMILES O=c1[nH]cc(F)c(=O)[nH]1
REMARK SMILES IDX 6 1 8 2 1 3 9 4 3 5 7 6 2 7 5 8 4 9
REMARK H PARENT 9 10 3 11
REMARK Flexibility Score: inf
ROOT
ATOM      1  F   UNL     1       3.302  45.897  40.887  1.00  0.00    -0.199 F 
ATOM      2  O   UNL     1       1.137  44.352  41.466  1.00  0.00    -0.266 OA
ATOM      3  O   UNL     1      -1.000  45.804  37.623  1.00  0.00    -0.248 OA
ATOM      4  N   UNL     1       0.045  45.065  39.547  1.00  0.00    -0.272 N 
ATOM      5  N   UNL     1       1.107  46.595  38.119  1.00  0.00    -0.311 N 
ATOM      6  C   UNL     1       1.108  45.027  40.443  1.00  0.00     0.289 A 
ATOM      7  C   UNL     1      -0.021  45.822  38.371  1.00  0.00     0.325 A 
ATOM      8  C   UNL     1       2.242  45.891  40.059  1.00  0.00     0.204 A 
ATOM      9  C   UNL     1       2.197  46.619  38.945  1.00  0.00     0.132 A 
ATOM     10  H   UNL     1      -0.762  44.486  39.766  1.00  0.00     0.175 HD
ATOM     11  H   UNL     1       1.132  47.171  37.284  1.00  0.00     0.171 HD
ENDROOT
TORSDOF 0
ENDMDL
MODEL 12
REMARK VINA RESULT:    -9.133      2.742      6.397
REMARK INTER + INTRA:         -16.329
REMARK INTER:                 -15.119
REMARK INTRA:                  -1.210
REMARK UNBOUND:                -1.589
REMARK SMILES O=P(O)(O)OC[C@H]1O[C@H](O[P@@](=O)(O)OP(=O)(O)O)[C@H](O)[C@@H]1O
REMARK SMILES IDX 8 1 21 2 7 3 19 4 9 5 10 6 11 7 12 8 14 9 15 10 16 11 17 12
REMARK SMILES IDX 18 14 13 16 20 18 6 20 5 21 2 22 1 23 3 24 4 26 22 28
REMARK H PARENT 17 13 18 15 13 17 20 19 3 25 4 27 22 29
REMARK Flexibility Score: inf
ROOT
ATOM      1  O   UNL     1      -4.719  61.310  36.331  1.00  0.00    -0.341 OA
ATOM      2  C   UNL     1      -6.680  60.116  35.755  1.00  0.00     0.179 C 
ATOM      3  C   UNL     1      -5.211  60.321  35.406  1.00  0.00     0.179 C 
ATOM      4  C   UNL     1      -6.665  60.332  37.253  1.00  0.00     0.202 C 
ATOM      5  C   UNL     1      -5.717  61.519  37.348  1.00  0.00     0.293 C 
ENDROOT
BRANCH   5   6
ATOM      6  O   UNL     1      -5.162  61.626  38.647  1.00  0.00    -0.253 OA
BRANCH   6   7
ATOM      7  P   UNL     1      -4.134  62.828  38.993  1.00  0.00     0.483 P 
ATOM      8  O   UNL     1      -2.765  62.677  38.395  1.00  0.00    -0.228 OA
BRANCH   7   9
ATOM      9  O   UNL     1      -4.145  62.919  40.607  1.00  0.00    -0.185 OA
BRANCH   9  10
ATOM     10  P   UNL     1      -5.314  62.610  41.679  1.00  0.00     0.478 P 
ATOM     11  O   UNL     1      -5.045  63.120  43.064  1.00  0.00    -0.228 OA
BRANCH  10  12
ATOM     12  O   UNL     1      -5.510  61.010  41.558  1.00  0.00    -0.302 OA
ATOM     13  H   UNL     1      -4.996  60.423  42.153  1.00  0.00     0.223 HD
ENDBRANCH  10  12
BRANCH  10  14
ATOM     14  O   UNL     1      -6.638  63.207  40.968  1.00  0.00    -0.302 OA
ATOM     15  H   UNL     1      -7.435  62.640  40.898  1.00  0.00     0.223 HD
ENDBRANCH  10  14
ENDBRANCH   9  10
ENDBRANCH   7   9
BRANCH   7  16
ATOM     16  O   UNL     1      -4.917  64.169  38.540  1.00  0.00    -0.302 OA
ATOM     17  H   UNL     1      -4.407  64.900  38.131  1.00  0.00     0.223 HD
ENDBRANCH   7  16
ENDBRANCH   6   7
ENDBRANCH   5   6
BRANCH   4  18
ATOM     18  O   UNL     1      -6.097  59.192  37.895  1.00  0.00    -0.385 OA
ATOM     19  H   UNL     1      -6.812  58.584  38.147  1.00  0.00     0.211 HD
ENDBRANCH   4  18
BRANCH   3  20
ATOM     20  C   UNL     1      -4.994  60.800  33.981  1.00  0.00     0.208 C 
BRANCH  20  21
ATOM     21  O   UNL     1      -4.761  62.199  33.999  1.00  0.00    -0.284 OA
BRANCH  21  22
ATOM     22  P   UNL     1      -3.583  62.796  33.063  1.00  0.00     0.469 P 
ATOM     23  O   UNL     1      -3.709  64.256  32.740  1.00  0.00    -0.228 OA
BRANCH  22  24
ATOM     24  O   UNL     1      -3.566  61.804  31.787  1.00  0.00    -0.303 OA
ATOM     25  H   UNL     1      -3.098  60.945  31.859  1.00  0.00     0.223 HD
ENDBRANCH  22  24
BRANCH  22  26
ATOM     26  O   UNL     1      -2.241  62.389  33.869  1.00  0.00    -0.303 OA
ATOM     27  H   UNL     1      -1.818  61.524  33.681  1.00  0.00     0.223 HD
ENDBRANCH  22  26
ENDBRANCH  21  22
ENDBRANCH  20  21
ENDBRANCH   3  20
BRANCH   2  28
ATOM     28  O   UNL     1      -7.140  58.838  35.376  1.00  0.00    -0.387 OA
ATOM     29  H   UNL     1      -8.072  58.767  35.644  1.00  0.00     0.211 HD
ENDBRANCH   2  28
TORSDOF 14
REMARK SMILES O=c1[nH]cc(F)c(=O)[nH]1
REMARK SMILES IDX 6 1 8 2 1 3 9 4 3 5 7 6 2 7 5 8 4 9
REMARK H PARENT 9 10 3 11
REMARK Flexibility Score: inf
ROOT
ATOM      1  F   UNL     1       0.473  58.622  37.335  1.00  0.00    -0.199 F 
ATOM      2  O   UNL     1      -1.706  59.920  36.345  1.00  0.00    -0.266 OA
ATOM      3  O   UNL     1      -4.091  58.978  40.202  1.00  0.00    -0.248 OA
ATOM      4  N   UNL     1      -2.923  59.460  38.266  1.00  0.00    -0.272 N 
ATOM      5  N   UNL     1      -1.914  58.247  40.004  1.00  0.00    -0.311 N 
ATOM      6  C   UNL     1      -1.790  59.417  37.461  1.00  0.00     0.289 A 
ATOM      7  C   UNL     1      -3.052  58.899  39.543  1.00  0.00     0.325 A 
ATOM      8  C   UNL     1      -0.653  58.697  38.067  1.00  0.00     0.204 A 
ATOM      9  C   UNL     1      -0.758  58.156  39.279  1.00  0.00     0.132 A 
ATOM     10  H   UNL     1      -3.735  59.945  37.894  1.00  0.00     0.175 HD
ATOM     11  H   UNL     1      -1.933  57.814  40.923  1.00  0.00     0.171 HD
ENDROOT
TORSDOF 0
ENDMDL
MODEL 13
REMARK VINA RESULT:    -9.066      3.013      6.268
REMARK INTER + INTRA:         -16.219
REMARK INTER:                 -14.881
REMARK INTRA:                  -1.339
REMARK UNBOUND:                -1.589
REMARK SMILES O=P(O)(O)OC[C@H]1O[C@H](O[P@@](=O)(O)OP(=O)(O)O)[C@H](O)[C@@H]1O
REMARK SMILES IDX 8 1 21 2 7 3 19 4 9 5 10 6 11 7 12 8 14 9 15 10 16 11 17 12
REMARK SMILES IDX 18 14 13 16 20 18 6 20 5 21 2 22 1 23 3 24 4 26 22 28
REMARK H PARENT 17 13 18 15 13 17 20 19 3 25 4 27 22 29
REMARK Flexibility Score: inf
ROOT
ATOM      1  O   UNL     1      -5.568  60.059  33.958  1.00  0.00    -0.341 OA
ATOM      2  C   UNL     1      -5.578  57.692  33.953  1.00  0.00     0.179 C 
ATOM      3  C   UNL     1      -6.116  58.931  33.249  1.00  0.00     0.179 C 
ATOM      4  C   UNL     1      -4.214  58.170  34.400  1.00  0.00     0.202 C 
ATOM      5  C   UNL     1      -4.558  59.578  34.866  1.00  0.00     0.293 C 
ENDROOT
BRANCH   5   6
ATOM      6  O   UNL     1      -3.406  60.403  34.891  1.00  0.00    -0.253 OA
BRANCH   6   7
ATOM      7  P   UNL     1      -3.480  61.878  35.553  1.00  0.00     0.483 P 
ATOM      8  O   UNL     1      -4.808  62.231  36.158  1.00  0.00    -0.228 OA
BRANCH   7   9
ATOM      9  O   UNL     1      -3.002  62.877  34.375  1.00  0.00    -0.185 OA
BRANCH   9  10
ATOM     10  P   UNL     1      -3.527  63.054  32.858  1.00  0.00     0.478 P 
ATOM     11  O   UNL     1      -4.880  63.689  32.733  1.00  0.00    -0.228 OA
BRANCH  10  12
ATOM     12  O   UNL     1      -3.407  61.560  32.251  1.00  0.00    -0.302 OA
ATOM     13  H   UNL     1      -2.756  61.388  31.538  1.00  0.00     0.223 HD
ENDBRANCH  10  12
BRANCH  10  14
ATOM     14  O   UNL     1      -2.320  63.851  32.136  1.00  0.00    -0.302 OA
ATOM     15  H   UNL     1      -2.364  64.007  31.169  1.00  0.00     0.223 HD
ENDBRANCH  10  14
ENDBRANCH   9  10
ENDBRANCH   7   9
BRANCH   7  16
ATOM     16  O   UNL     1      -2.242  61.914  36.595  1.00  0.00    -0.302 OA
ATOM     17  H   UNL     1      -1.897  61.067  36.950  1.00  0.00     0.223 HD
ENDBRANCH   7  16
ENDBRANCH   6   7
ENDBRANCH   5   6
BRANCH   4  18
ATOM     18  O   UNL     1      -3.333  58.221  33.280  1.00  0.00    -0.385 OA
ATOM     19  H   UNL     1      -2.588  57.617  33.437  1.00  0.00     0.211 HD
ENDBRANCH   4  18
BRANCH   3  20
ATOM     20  C   UNL     1      -7.633  59.012  33.255  1.00  0.00     0.208 C 
BRANCH  20  21
ATOM     21  O   UNL     1      -8.151  57.836  33.853  1.00  0.00    -0.284 OA
BRANCH  21  22
ATOM     22  P   UNL     1      -9.604  57.908  34.563  1.00  0.00     0.469 P 
ATOM     23  O   UNL     1      -9.672  58.776  35.784  1.00  0.00    -0.228 OA
BRANCH  22  24
ATOM     24  O   UNL     1      -9.996  56.357  34.794  1.00  0.00    -0.303 OA
ATOM     25  H   UNL     1      -9.313  55.739  35.131  1.00  0.00     0.223 HD
ENDBRANCH  22  24
BRANCH  22  26
ATOM     26  O   UNL     1     -10.575  58.360  33.350  1.00  0.00    -0.303 OA
ATOM     27  H   UNL     1     -11.543  58.239  33.447  1.00  0.00     0.223 HD
ENDBRANCH  22  26
ENDBRANCH  21  22
ENDBRANCH  20  21
ENDBRANCH   3  20
BRANCH   2  28
ATOM     28  O   UNL     1      -5.527  56.575  33.092  1.00  0.00    -0.387 OA
ATOM     29  H   UNL     1      -5.893  56.846  32.234  1.00  0.00     0.211 HD
ENDBRANCH   2  28
TORSDOF 14
REMARK SMILES O=c1[nH]cc(F)c(=O)[nH]1
REMARK SMILES IDX 6 1 8 2 1 3 9 4 3 5 7 6 2 7 5 8 4 9
REMARK H PARENT 9 10 3 11
REMARK Flexibility Score: inf
ROOT
ATOM      1  F   UNL     1      -1.583  58.664  37.167  1.00  0.00    -0.199 F 
ATOM      2  O   UNL     1      -0.087  57.919  39.316  1.00  0.00    -0.266 OA
ATOM      3  O   UNL     1      -3.389  59.407  42.202  1.00  0.00    -0.248 OA
ATOM      4  N   UNL     1      -1.725  58.659  40.783  1.00  0.00    -0.272 N 
ATOM      5  N   UNL     1      -3.698  59.600  39.926  1.00  0.00    -0.311 N 
ATOM      6  C   UNL     1      -1.183  58.429  39.523  1.00  0.00     0.289 A 
ATOM      7  C   UNL     1      -2.972  59.236  41.055  1.00  0.00     0.325 A 
ATOM      8  C   UNL     1      -2.053  58.860  38.411  1.00  0.00     0.204 A 
ATOM      9  C   UNL     1      -3.241  59.412  38.650  1.00  0.00     0.132 A 
ATOM     10  H   UNL     1      -1.164  58.379  41.583  1.00  0.00     0.175 HD
ATOM     11  H   UNL     1      -4.612  60.026  40.045  1.00  0.00     0.171 HD
ENDROOT
TORSDOF 0
ENDMDL
MODEL 14
REMARK VINA RESULT:    -9.055      2.080      3.410
REMARK INTER + INTRA:         -16.202
REMARK INTER:                 -15.217
REMARK INTRA:                  -0.986
REMARK UNBOUND:                -1.589
REMARK SMILES O=P(O)(O)OC[C@H]1O[C@H](O[P@@](=O)(O)OP(=O)(O)O)[C@H](O)[C@@H]1O
REMARK SMILES IDX 8 1 21 2 7 3 19 4 9 5 10 6 11 7 12 8 14 9 15 10 16 11 17 12
REMARK SMILES IDX 18 14 13 16 20 18 6 20 5 21 2 22 1 23 3 24 4 26 22 28
REMARK H PARENT 17 13 18 15 13 17 20 19 3 25 4 27 22 29
REMARK Flexibility Score: inf
ROOT
ATOM      1  O   UNL     1      -3.309  60.270  38.338  1.00  0.00    -0.341 OA
ATOM      2  C   UNL     1      -1.402  58.945  38.795  1.00  0.00     0.179 C 
ATOM      3  C   UNL     1      -2.741  59.415  39.349  1.00  0.00     0.179 C 
ATOM      4  C   UNL     1      -1.700  58.872  37.313  1.00  0.00     0.202 C 
ATOM      5  C   UNL     1      -2.524  60.140  37.138  1.00  0.00     0.293 C 
ENDROOT
BRANCH   5   6
ATOM      6  O   UNL     1      -3.318  60.074  35.966  1.00  0.00    -0.253 OA
BRANCH   6   7
ATOM      7  P   UNL     1      -4.433  61.212  35.679  1.00  0.00     0.483 P 
ATOM      8  O   UNL     1      -5.771  60.956  36.312  1.00  0.00    -0.228 OA
BRANCH   7   9
ATOM      9  O   UNL     1      -4.477  61.339  34.068  1.00  0.00    -0.185 OA
BRANCH   9  10
ATOM     10  P   UNL     1      -3.843  62.444  33.074  1.00  0.00     0.478 P 
ATOM     11  O   UNL     1      -4.670  63.684  32.907  1.00  0.00    -0.228 OA
BRANCH  10  12
ATOM     12  O   UNL     1      -3.574  61.606  31.718  1.00  0.00    -0.302 OA
ATOM     13  H   UNL     1      -2.679  61.628  31.316  1.00  0.00     0.223 HD
ENDBRANCH  10  12
BRANCH  10  14
ATOM     14  O   UNL     1      -2.360  62.677  33.673  1.00  0.00    -0.302 OA
ATOM     15  H   UNL     1      -2.158  62.358  34.578  1.00  0.00     0.223 HD
ENDBRANCH  10  14
ENDBRANCH   9  10
ENDBRANCH   7   9
BRANCH   7  16
ATOM     16  O   UNL     1      -3.728  62.592  36.141  1.00  0.00    -0.302 OA
ATOM     17  H   UNL     1      -4.240  63.428  36.087  1.00  0.00     0.223 HD
ENDBRANCH   7  16
ENDBRANCH   6   7
ENDBRANCH   5   6
BRANCH   4  18
ATOM     18  O   UNL     1      -2.498  57.722  37.041  1.00  0.00    -0.385 OA
ATOM     19  H   UNL     1      -3.295  57.998  36.557  1.00  0.00     0.211 HD
ENDBRANCH   4  18
BRANCH   3  20
ATOM     20  C   UNL     1      -2.614  60.182  40.654  1.00  0.00     0.208 C 
BRANCH  20  21
ATOM     21  O   UNL     1      -3.229  59.431  41.687  1.00  0.00    -0.284 OA
BRANCH  21  22
ATOM     22  P   UNL     1      -4.404  60.130  42.553  1.00  0.00     0.469 P 
ATOM     23  O   UNL     1      -4.889  59.329  43.727  1.00  0.00    -0.228 OA
BRANCH  22  24
ATOM     24  O   UNL     1      -5.530  60.493  41.452  1.00  0.00    -0.303 OA
ATOM     25  H   UNL     1      -5.966  61.371  41.489  1.00  0.00     0.223 HD
ENDBRANCH  22  24
BRANCH  22  26
ATOM     26  O   UNL     1      -3.769  61.570  42.926  1.00  0.00    -0.303 OA
ATOM     27  H   UNL     1      -3.456  62.152  42.201  1.00  0.00     0.223 HD
ENDBRANCH  22  26
ENDBRANCH  21  22
ENDBRANCH  20  21
ENDBRANCH   3  20
BRANCH   2  28
ATOM     28  O   UNL     1      -1.005  57.710  39.349  1.00  0.00    -0.387 OA
ATOM     29  H   UNL     1      -1.623  57.496  40.069  1.00  0.00     0.211 HD
ENDBRANCH   2  28
TORSDOF 14
REMARK SMILES O=c1[nH]cc(F)c(=O)[nH]1
REMARK SMILES IDX 6 1 8 2 1 3 9 4 3 5 7 6 2 7 5 8 4 9
REMARK H PARENT 9 10 3 11
REMARK Flexibility Score: inf
ROOT
ATOM      1  F   UNL     1      -7.983  57.490  36.045  1.00  0.00    -0.199 F 
ATOM      2  O   UNL     1      -5.481  57.760  37.081  1.00  0.00    -0.266 OA
ATOM      3  O   UNL     1      -3.607  56.569  33.017  1.00  0.00    -0.248 OA
ATOM      4  N   UNL     1      -4.517  57.164  35.056  1.00  0.00    -0.272 N 
ATOM      5  N   UNL     1      -5.900  56.655  33.229  1.00  0.00    -0.311 N 
ATOM      6  C   UNL     1      -5.587  57.422  35.907  1.00  0.00     0.289 A 
ATOM      7  C   UNL     1      -4.602  56.779  33.713  1.00  0.00     0.325 A 
ATOM      8  C   UNL     1      -6.908  57.254  35.272  1.00  0.00     0.204 A 
ATOM      9  C   UNL     1      -7.010  56.888  33.996  1.00  0.00     0.132 A 
ATOM     10  H   UNL     1      -3.584  57.266  35.446  1.00  0.00     0.175 HD
ATOM     11  H   UNL     1      -6.041  56.378  32.263  1.00  0.00     0.171 HD
ENDROOT
TORSDOF 0
ENDMDL
MODEL 15
REMARK VINA RESULT:    -9.048      7.690      9.767
REMARK INTER + INTRA:         -16.191
REMARK INTER:                 -14.643
REMARK INTRA:                  -1.548
REMARK UNBOUND:                -1.589
REMARK SMILES O=P(O)(O)OC[C@H]1O[C@H](O[P@@](=O)(O)OP(=O)(O)O)[C@H](O)[C@@H]1O
REMARK SMILES IDX 8 1 21 2 7 3 19 4 9 5 10 6 11 7 12 8 14 9 15 10 16 11 17 12
REMARK SMILES IDX 18 14 13 16 20 18 6 20 5 21 2 22 1 23 3 24 4 26 22 28
REMARK H PARENT 17 13 18 15 13 17 20 19 3 25 4 27 22 29
REMARK Flexibility Score: inf
ROOT
ATOM      1  O   UNL     1      -4.416  60.501  37.459  1.00  0.00    -0.341 OA
ATOM      2  C   UNL     1      -2.686  60.210  35.870  1.00  0.00     0.179 C 
ATOM      3  C   UNL     1      -3.602  61.236  36.524  1.00  0.00     0.179 C 
ATOM      4  C   UNL     1      -2.472  59.232  37.004  1.00  0.00     0.202 C 
ATOM      5  C   UNL     1      -3.880  59.169  37.579  1.00  0.00     0.293 C 
ENDROOT
BRANCH   5   6
ATOM      6  O   UNL     1      -3.865  58.703  38.917  1.00  0.00    -0.253 OA
BRANCH   6   7
ATOM      7  P   UNL     1      -5.185  58.850  39.841  1.00  0.00     0.483 P 
ATOM      8  O   UNL     1      -6.463  59.072  39.084  1.00  0.00    -0.228 OA
BRANCH   7   9
ATOM      9  O   UNL     1      -4.821  60.030  40.886  1.00  0.00    -0.185 OA
BRANCH   9  10
ATOM     10  P   UNL     1      -3.396  60.557  41.434  1.00  0.00     0.478 P 
ATOM     11  O   UNL     1      -2.635  61.421  40.472  1.00  0.00    -0.228 OA
BRANCH  10  12
ATOM     12  O   UNL     1      -2.647  59.196  41.879  1.00  0.00    -0.302 OA
ATOM     13  H   UNL     1      -2.273  58.611  41.185  1.00  0.00     0.223 HD
ENDBRANCH  10  12
BRANCH  10  14
ATOM     14  O   UNL     1      -3.773  61.257  42.841  1.00  0.00    -0.302 OA
ATOM     15  H   UNL     1      -4.575  61.820  42.892  1.00  0.00     0.223 HD
ENDBRANCH  10  14
ENDBRANCH   9  10
ENDBRANCH   7   9
BRANCH   7  16
ATOM     16  O   UNL     1      -5.180  57.522  40.765  1.00  0.00    -0.302 OA
ATOM     17  H   UNL     1      -5.624  56.712  40.434  1.00  0.00     0.223 HD
ENDBRANCH   7  16
ENDBRANCH   6   7
ENDBRANCH   5   6
BRANCH   4  18
ATOM     18  O   UNL     1      -1.572  59.793  37.958  1.00  0.00    -0.385 OA
ATOM     19  H   UNL     1      -0.751  60.048  37.504  1.00  0.00     0.211 HD
ENDBRANCH   4  18
BRANCH   3  20
ATOM     20  C   UNL     1      -4.492  61.964  35.533  1.00  0.00     0.208 C 
BRANCH  20  21
ATOM     21  O   UNL     1      -4.204  61.492  34.227  1.00  0.00    -0.284 OA
BRANCH  21  22
ATOM     22  P   UNL     1      -3.780  62.567  33.094  1.00  0.00     0.469 P 
ATOM     23  O   UNL     1      -4.681  63.761  32.983  1.00  0.00    -0.228 OA
BRANCH  22  24
ATOM     24  O   UNL     1      -3.642  61.677  31.752  1.00  0.00    -0.303 OA
ATOM     25  H   UNL     1      -2.791  61.225  31.566  1.00  0.00     0.223 HD
ENDBRANCH  22  24
BRANCH  22  26
ATOM     26  O   UNL     1      -2.245  62.904  33.476  1.00  0.00    -0.303 OA
ATOM     27  H   UNL     1      -1.624  62.164  33.646  1.00  0.00     0.223 HD
ENDBRANCH  22  26
ENDBRANCH  21  22
ENDBRANCH  20  21
ENDBRANCH   3  20
BRANCH   2  28
ATOM     28  O   UNL     1      -1.490  60.792  35.398  1.00  0.00    -0.387 OA
ATOM     29  H   UNL     1      -1.319  60.438  34.509  1.00  0.00     0.211 HD
ENDBRANCH   2  28
TORSDOF 14
REMARK SMILES O=c1[nH]cc(F)c(=O)[nH]1
REMARK SMILES IDX 6 1 8 2 1 3 9 4 3 5 7 6 2 7 5 8 4 9
REMARK H PARENT 9 10 3 11
REMARK Flexibility Score: inf
ROOT
ATOM      1  F   UNL     1       3.299  45.900  40.890  1.00  0.00    -0.199 F 
ATOM      2  O   UNL     1       1.134  44.351  41.461  1.00  0.00    -0.266 OA
ATOM      3  O   UNL     1      -1.001  45.819  37.622  1.00  0.00    -0.248 OA
ATOM      4  N   UNL     1       0.043  45.072  39.545  1.00  0.00    -0.272 N 
ATOM      5  N   UNL     1       1.106  46.608  38.124  1.00  0.00    -0.311 N 
ATOM      6  C   UNL     1       1.106  45.031  40.440  1.00  0.00     0.289 A 
ATOM      7  C   UNL     1      -0.023  45.834  38.372  1.00  0.00     0.325 A 
ATOM      8  C   UNL     1       2.239  45.897  40.062  1.00  0.00     0.204 A 
ATOM      9  C   UNL     1       2.195  46.630  38.951  1.00  0.00     0.132 A 
ATOM     10  H   UNL     1      -0.764  44.492  39.761  1.00  0.00     0.175 HD
ATOM     11  H   UNL     1       1.131  47.189  37.291  1.00  0.00     0.171 HD
ENDROOT
TORSDOF 0
ENDMDL
MODEL 16
REMARK VINA RESULT:    -9.046      3.085      5.246
REMARK INTER + INTRA:         -16.188
REMARK INTER:                 -14.591
REMARK INTRA:                  -1.597
REMARK UNBOUND:                -1.589
REMARK SMILES O=P(O)(O)OC[C@H]1O[C@H](O[P@@](=O)(O)OP(=O)(O)O)[C@H](O)[C@@H]1O
REMARK SMILES IDX 8 1 21 2 7 3 19 4 9 5 10 6 11 7 12 8 14 9 15 10 16 11 17 12
REMARK SMILES IDX 18 14 13 16 20 18 6 20 5 21 2 22 1 23 3 24 4 26 22 28
REMARK H PARENT 17 13 18 15 13 17 20 19 3 25 4 27 22 29
REMARK Flexibility Score: inf
ROOT
ATOM      1  O   UNL     1      -4.382  60.737  35.219  1.00  0.00    -0.341 OA
ATOM      2  C   UNL     1      -3.451  62.630  34.145  1.00  0.00     0.179 C 
ATOM      3  C   UNL     1      -3.201  61.562  35.203  1.00  0.00     0.179 C 
ATOM      4  C   UNL     1      -4.292  61.868  33.144  1.00  0.00     0.202 C 
ATOM      5  C   UNL     1      -5.199  61.088  34.086  1.00  0.00     0.293 C 
ENDROOT
BRANCH   5   6
ATOM      6  O   UNL     1      -5.756  59.958  33.439  1.00  0.00    -0.253 OA
BRANCH   6   7
ATOM      7  P   UNL     1      -6.602  58.872  34.291  1.00  0.00     0.483 P 
ATOM      8  O   UNL     1      -7.476  59.456  35.363  1.00  0.00    -0.228 OA
BRANCH   7   9
ATOM      9  O   UNL     1      -5.492  57.830  34.837  1.00  0.00    -0.185 OA
BRANCH   9  10
ATOM     10  P   UNL     1      -4.276  57.084  34.079  1.00  0.00     0.478 P 
ATOM     11  O   UNL     1      -3.474  56.157  34.944  1.00  0.00    -0.228 OA
BRANCH  10  12
ATOM     12  O   UNL     1      -3.446  58.307  33.425  1.00  0.00    -0.302 OA
ATOM     13  H   UNL     1      -3.489  58.444  32.454  1.00  0.00     0.223 HD
ENDBRANCH  10  12
BRANCH  10  14
ATOM     14  O   UNL     1      -4.996  56.393  32.808  1.00  0.00    -0.302 OA
ATOM     15  H   UNL     1      -5.900  56.028  32.914  1.00  0.00     0.223 HD
ENDBRANCH  10  14
ENDBRANCH   9  10
ENDBRANCH   7   9
BRANCH   7  16
ATOM     16  O   UNL     1      -7.398  58.015  33.173  1.00  0.00    -0.302 OA
ATOM     17  H   UNL     1      -8.311  58.281  32.933  1.00  0.00     0.223 HD
ENDBRANCH   7  16
ENDBRANCH   6   7
ENDBRANCH   5   6
BRANCH   4  18
ATOM     18  O   UNL     1      -3.463  60.975  32.403  1.00  0.00    -0.385 OA
ATOM     19  H   UNL     1      -3.292  61.358  31.526  1.00  0.00     0.211 HD
ENDBRANCH   4  18
BRANCH   3  20
ATOM     20  C   UNL     1      -2.959  62.136  36.588  1.00  0.00     0.208 C 
BRANCH  20  21
ATOM     21  O   UNL     1      -4.139  62.788  37.026  1.00  0.00    -0.284 OA
BRANCH  21  22
ATOM     22  P   UNL     1      -4.369  62.981  38.617  1.00  0.00     0.469 P 
ATOM     23  O   UNL     1      -5.513  62.199  39.192  1.00  0.00    -0.228 OA
BRANCH  22  24
ATOM     24  O   UNL     1      -4.465  64.583  38.799  1.00  0.00    -0.303 OA
ATOM     25  H   UNL     1      -4.183  64.983  39.651  1.00  0.00     0.223 HD
ENDBRANCH  22  24
BRANCH  22  26
ATOM     26  O   UNL     1      -2.918  62.621  39.236  1.00  0.00    -0.303 OA
ATOM     27  H   UNL     1      -2.252  62.186  38.662  1.00  0.00     0.223 HD
ENDBRANCH  22  26
ENDBRANCH  21  22
ENDBRANCH  20  21
ENDBRANCH   3  20
BRANCH   2  28
ATOM     28  O   UNL     1      -2.248  63.129  33.603  1.00  0.00    -0.387 OA
ATOM     29  H   UNL     1      -1.992  62.549  32.866  1.00  0.00     0.211 HD
ENDBRANCH   2  28
TORSDOF 14
REMARK SMILES O=c1[nH]cc(F)c(=O)[nH]1
REMARK SMILES IDX 6 1 8 2 1 3 9 4 3 5 7 6 2 7 5 8 4 9
REMARK H PARENT 9 10 3 11
REMARK Flexibility Score: inf
ROOT
ATOM      1  F   UNL     1      -2.140  58.514  36.983  1.00  0.00    -0.199 F 
ATOM      2  O   UNL     1      -0.279  57.927  38.881  1.00  0.00    -0.266 OA
ATOM      3  O   UNL     1      -3.107  59.462  42.211  1.00  0.00    -0.248 OA
ATOM      4  N   UNL     1      -1.677  58.691  40.568  1.00  0.00    -0.272 N 
ATOM      5  N   UNL     1      -3.799  59.527  40.014  1.00  0.00    -0.311 N 
ATOM      6  C   UNL     1      -1.344  58.414  39.246  1.00  0.00     0.289 A 
ATOM      7  C   UNL     1      -2.881  59.244  41.020  1.00  0.00     0.325 A 
ATOM      8  C   UNL     1      -2.403  58.760  38.279  1.00  0.00     0.204 A 
ATOM      9  C   UNL     1      -3.555  59.287  38.689  1.00  0.00     0.132 A 
ATOM     10  H   UNL     1      -0.979  58.471  41.274  1.00  0.00     0.175 HD
ATOM     11  H   UNL     1      -4.696  59.931  40.266  1.00  0.00     0.171 HD
ENDROOT
TORSDOF 0
ENDMDL
MODEL 17
REMARK VINA RESULT:    -9.037      3.148      4.353
REMARK INTER + INTRA:         -16.173
REMARK INTER:                 -14.292
REMARK INTRA:                  -1.881
REMARK UNBOUND:                -1.589
REMARK SMILES O=P(O)(O)OC[C@H]1O[C@H](O[P@@](=O)(O)OP(=O)(O)O)[C@H](O)[C@@H]1O
REMARK SMILES IDX 8 1 21 2 7 3 19 4 9 5 10 6 11 7 12 8 14 9 15 10 16 11 17 12
REMARK SMILES IDX 18 14 13 16 20 18 6 20 5 21 2 22 1 23 3 24 4 26 22 28
REMARK H PARENT 17 13 18 15 13 17 20 19 3 25 4 27 22 29
REMARK Flexibility Score: inf
ROOT
ATOM      1  O   UNL     1      -4.483  62.469  36.805  1.00  0.00    -0.341 OA
ATOM      2  C   UNL     1      -4.386  62.799  39.147  1.00  0.00     0.179 C 
ATOM      3  C   UNL     1      -3.638  63.014  37.837  1.00  0.00     0.179 C 
ATOM      4  C   UNL     1      -5.824  62.936  38.697  1.00  0.00     0.202 C 
ATOM      5  C   UNL     1      -5.771  62.175  37.380  1.00  0.00     0.293 C 
ENDROOT
BRANCH   5   6
ATOM      6  O   UNL     1      -6.846  62.544  36.534  1.00  0.00    -0.253 OA
BRANCH   6   7
ATOM      7  P   UNL     1      -6.933  61.953  35.030  1.00  0.00     0.483 P 
ATOM      8  O   UNL     1      -8.260  62.144  34.354  1.00  0.00    -0.228 OA
BRANCH   7   9
ATOM      9  O   UNL     1      -6.480  60.408  35.175  1.00  0.00    -0.185 OA
BRANCH   9  10
ATOM     10  P   UNL     1      -5.546  59.484  34.234  1.00  0.00     0.478 P 
ATOM     11  O   UNL     1      -4.299  60.154  33.738  1.00  0.00    -0.228 OA
BRANCH  10  12
ATOM     12  O   UNL     1      -6.565  58.984  33.083  1.00  0.00    -0.302 OA
ATOM     13  H   UNL     1      -7.440  58.627  33.347  1.00  0.00     0.223 HD
ENDBRANCH  10  12
BRANCH  10  14
ATOM     14  O   UNL     1      -5.309  58.159  35.130  1.00  0.00    -0.302 OA
ATOM     15  H   UNL     1      -5.742  57.321  34.861  1.00  0.00     0.223 HD
ENDBRANCH  10  14
ENDBRANCH   9  10
ENDBRANCH   7   9
BRANCH   7  16
ATOM     16  O   UNL     1      -5.686  62.634  34.256  1.00  0.00    -0.302 OA
ATOM     17  H   UNL     1      -5.860  63.376  33.638  1.00  0.00     0.223 HD
ENDBRANCH   7  16
ENDBRANCH   6   7
ENDBRANCH   5   6
BRANCH   4  18
ATOM     18  O   UNL     1      -6.124  64.311  38.463  1.00  0.00    -0.385 OA
ATOM     19  H   UNL     1      -6.328  64.433  37.521  1.00  0.00     0.211 HD
ENDBRANCH   4  18
BRANCH   3  20
ATOM     20  C   UNL     1      -2.282  62.330  37.802  1.00  0.00     0.208 C 
BRANCH  20  21
ATOM     21  O   UNL     1      -2.472  60.931  37.927  1.00  0.00    -0.284 OA
BRANCH  21  22
ATOM     22  P   UNL     1      -1.980  59.975  36.717  1.00  0.00     0.469 P 
ATOM     23  O   UNL     1      -2.820  58.752  36.493  1.00  0.00    -0.228 OA
BRANCH  22  24
ATOM     24  O   UNL     1      -0.426  59.693  37.058  1.00  0.00    -0.303 OA
ATOM     25  H   UNL     1       0.102  60.399  37.490  1.00  0.00     0.223 HD
ENDBRANCH  22  24
BRANCH  22  26
ATOM     26  O   UNL     1      -1.908  60.992  35.461  1.00  0.00    -0.303 OA
ATOM     27  H   UNL     1      -2.620  60.965  34.787  1.00  0.00     0.223 HD
ENDBRANCH  22  26
ENDBRANCH  21  22
ENDBRANCH  20  21
ENDBRANCH   3  20
BRANCH   2  28
ATOM     28  O   UNL     1      -4.013  63.741  40.129  1.00  0.00    -0.387 OA
ATOM     29  H   UNL     1      -4.738  64.383  40.215  1.00  0.00     0.211 HD
ENDBRANCH   2  28
TORSDOF 14
REMARK SMILES O=c1[nH]cc(F)c(=O)[nH]1
REMARK SMILES IDX 6 1 8 2 1 3 9 4 3 5 7 6 2 7 5 8 4 9
REMARK H PARENT 9 10 3 11
REMARK Flexibility Score: inf
ROOT
ATOM      1  F   UNL     1      -3.268  60.089  42.606  1.00  0.00    -0.199 F 
ATOM      2  O   UNL     1      -1.965  58.597  40.739  1.00  0.00    -0.266 OA
ATOM      3  O   UNL     1      -5.774  58.457  38.109  1.00  0.00    -0.248 OA
ATOM      4  N   UNL     1      -3.861  58.511  39.403  1.00  0.00    -0.272 N 
ATOM      5  N   UNL     1      -5.820  59.588  40.116  1.00  0.00    -0.311 N 
ATOM      6  C   UNL     1      -3.138  58.888  40.531  1.00  0.00     0.289 A 
ATOM      7  C   UNL     1      -5.198  58.826  39.134  1.00  0.00     0.325 A 
ATOM      8  C   UNL     1      -3.913  59.693  41.494  1.00  0.00     0.204 A 
ATOM      9  C   UNL     1      -5.186  60.002  41.256  1.00  0.00     0.132 A 
ATOM     10  H   UNL     1      -3.371  57.954  38.708  1.00  0.00     0.175 HD
ATOM     11  H   UNL     1      -6.792  59.855  39.990  1.00  0.00     0.171 HD
ENDROOT
TORSDOF 0
ENDMDL
MODEL 18
REMARK VINA RESULT:    -8.986      7.646      8.102
REMARK INTER + INTRA:         -16.091
REMARK INTER:                 -14.810
REMARK INTRA:                  -1.281
REMARK UNBOUND:                -1.589
REMARK SMILES O=P(O)(O)OC[C@H]1O[C@H](O[P@@](=O)(O)OP(=O)(O)O)[C@H](O)[C@@H]1O
REMARK SMILES IDX 8 1 21 2 7 3 19 4 9 5 10 6 11 7 12 8 14 9 15 10 16 11 17 12
REMARK SMILES IDX 18 14 13 16 20 18 6 20 5 21 2 22 1 23 3 24 4 26 22 28
REMARK H PARENT 17 13 18 15 13 17 20 19 3 25 4 27 22 29
REMARK Flexibility Score: inf
ROOT
ATOM      1  O   UNL     1      -2.932  62.164  38.541  1.00  0.00    -0.341 OA
ATOM      2  C   UNL     1      -4.845  62.228  39.934  1.00  0.00     0.179 C 
ATOM      3  C   UNL     1      -3.330  62.387  39.908  1.00  0.00     0.179 C 
ATOM      4  C   UNL     1      -5.224  62.747  38.565  1.00  0.00     0.202 C 
ATOM      5  C   UNL     1      -4.117  62.130  37.722  1.00  0.00     0.293 C 
ENDROOT
BRANCH   5   6
ATOM      6  O   UNL     1      -3.958  62.827  36.499  1.00  0.00    -0.253 OA
BRANCH   6   7
ATOM      7  P   UNL     1      -3.314  62.077  35.218  1.00  0.00     0.483 P 
ATOM      8  O   UNL     1      -3.020  62.970  34.047  1.00  0.00    -0.228 OA
BRANCH   7   9
ATOM      9  O   UNL     1      -4.345  60.875  34.891  1.00  0.00    -0.185 OA
BRANCH   9  10
ATOM     10  P   UNL     1      -4.538  59.974  33.563  1.00  0.00     0.478 P 
ATOM     11  O   UNL     1      -5.948  59.534  33.305  1.00  0.00    -0.228 OA
BRANCH  10  12
ATOM     12  O   UNL     1      -3.469  58.780  33.772  1.00  0.00    -0.302 OA
ATOM     13  H   UNL     1      -2.563  58.885  33.410  1.00  0.00     0.223 HD
ENDBRANCH  10  12
BRANCH  10  14
ATOM     14  O   UNL     1      -3.871  60.878  32.400  1.00  0.00    -0.302 OA
ATOM     15  H   UNL     1      -4.182  60.767  31.476  1.00  0.00     0.223 HD
ENDBRANCH  10  14
ENDBRANCH   9  10
ENDBRANCH   7   9
BRANCH   7  16
ATOM     16  O   UNL     1      -2.021  61.306  35.810  1.00  0.00    -0.302 OA
ATOM     17  H   UNL     1      -2.082  60.889  36.696  1.00  0.00     0.223 HD
ENDBRANCH   7  16
ENDBRANCH   6   7
ENDBRANCH   5   6
BRANCH   4  18
ATOM     18  O   UNL     1      -5.125  64.170  38.547  1.00  0.00    -0.385 OA
ATOM     19  H   UNL     1      -5.855  64.543  39.070  1.00  0.00     0.211 HD
ENDBRANCH   4  18
BRANCH   3  20
ATOM     20  C   UNL     1      -2.609  61.407  40.817  1.00  0.00     0.208 C 
BRANCH  20  21
ATOM     21  O   UNL     1      -3.444  60.281  41.030  1.00  0.00    -0.284 OA
BRANCH  21  22
ATOM     22  P   UNL     1      -2.999  58.860  40.395  1.00  0.00     0.469 P 
ATOM     23  O   UNL     1      -2.457  58.931  38.998  1.00  0.00    -0.228 OA
BRANCH  22  24
ATOM     24  O   UNL     1      -4.307  57.929  40.583  1.00  0.00    -0.303 OA
ATOM     25  H   UNL     1      -5.177  58.265  40.279  1.00  0.00     0.223 HD
ENDBRANCH  22  24
BRANCH  22  26
ATOM     26  O   UNL     1      -1.968  58.280  41.498  1.00  0.00    -0.303 OA
ATOM     27  H   UNL     1      -1.305  58.886  41.893  1.00  0.00     0.223 HD
ENDBRANCH  22  26
ENDBRANCH  21  22
ENDBRANCH  20  21
ENDBRANCH   3  20
BRANCH   2  28
ATOM     28  O   UNL     1      -5.434  62.952  40.992  1.00  0.00    -0.387 OA
ATOM     29  H   UNL     1      -4.802  63.636  41.271  1.00  0.00     0.211 HD
ENDBRANCH   2  28
TORSDOF 14
REMARK SMILES O=c1[nH]cc(F)c(=O)[nH]1
REMARK SMILES IDX 6 1 8 2 1 3 9 4 3 5 7 6 2 7 5 8 4 9
REMARK H PARENT 9 10 3 11
REMARK Flexibility Score: inf
ROOT
ATOM      1  F   UNL     1       3.303  45.917  40.897  1.00  0.00    -0.199 F 
ATOM      2  O   UNL     1       1.144  44.366  41.481  1.00  0.00    -0.266 OA
ATOM      3  O   UNL     1      -1.008  45.816  37.646  1.00  0.00    -0.248 OA
ATOM      4  N   UNL     1       0.044  45.078  39.567  1.00  0.00    -0.272 N 
ATOM      5  N   UNL     1       1.098  46.612  38.137  1.00  0.00    -0.311 N 
ATOM      6  C   UNL     1       1.111  45.042  40.459  1.00  0.00     0.289 A 
ATOM      7  C   UNL     1      -0.027  45.836  38.392  1.00  0.00     0.325 A 
ATOM      8  C   UNL     1       2.241  45.909  40.073  1.00  0.00     0.204 A 
ATOM      9  C   UNL     1       2.191  46.639  38.960  1.00  0.00     0.132 A 
ATOM     10  H   UNL     1      -0.761  44.497  39.787  1.00  0.00     0.175 HD
ATOM     11  H   UNL     1       1.119  47.190  37.302  1.00  0.00     0.171 HD
ENDROOT
TORSDOF 0
ENDMDL
MODEL 19
REMARK VINA RESULT:    -8.931      1.681      5.721
REMARK INTER + INTRA:         -16.003
REMARK INTER:                 -14.114
REMARK INTRA:                  -1.889
REMARK UNBOUND:                -1.589
REMARK SMILES O=P(O)(O)OC[C@H]1O[C@H](O[P@@](=O)(O)OP(=O)(O)O)[C@H](O)[C@@H]1O
REMARK SMILES IDX 8 1 21 2 7 3 19 4 9 5 10 6 11 7 12 8 14 9 15 10 16 11 17 12
REMARK SMILES IDX 18 14 13 16 20 18 6 20 5 21 2 22 1 23 3 24 4 26 22 28
REMARK H PARENT 17 13 18 15 13 17 20 19 3 25 4 27 22 29
REMARK Flexibility Score: inf
ROOT
ATOM      1  O   UNL     1      -3.754  61.582  37.653  1.00  0.00    -0.341 OA
ATOM      2  C   UNL     1      -5.623  61.339  36.222  1.00  0.00     0.179 C 
ATOM      3  C   UNL     1      -4.118  61.131  36.334  1.00  0.00     0.179 C 
ATOM      4  C   UNL     1      -6.067  61.090  37.647  1.00  0.00     0.202 C 
ATOM      5  C   UNL     1      -4.960  61.807  38.407  1.00  0.00     0.293 C 
ENDROOT
BRANCH   5   6
ATOM      6  O   UNL     1      -4.870  61.337  39.740  1.00  0.00    -0.253 OA
BRANCH   6   7
ATOM      7  P   UNL     1      -3.599  61.741  40.657  1.00  0.00     0.483 P 
ATOM      8  O   UNL     1      -3.057  63.119  40.409  1.00  0.00    -0.228 OA
BRANCH   7   9
ATOM      9  O   UNL     1      -2.529  60.554  40.413  1.00  0.00    -0.185 OA
BRANCH   9  10
ATOM     10  P   UNL     1      -2.727  58.955  40.296  1.00  0.00     0.478 P 
ATOM     11  O   UNL     1      -1.485  58.150  40.538  1.00  0.00    -0.228 OA
BRANCH  10  12
ATOM     12  O   UNL     1      -3.392  58.774  38.834  1.00  0.00    -0.302 OA
ATOM     13  H   UNL     1      -3.249  57.934  38.348  1.00  0.00     0.223 HD
ENDBRANCH  10  12
BRANCH  10  14
ATOM     14  O   UNL     1      -3.953  58.656  41.307  1.00  0.00    -0.302 OA
ATOM     15  H   UNL     1      -4.867  58.863  41.019  1.00  0.00     0.223 HD
ENDBRANCH  10  14
ENDBRANCH   9  10
ENDBRANCH   7   9
BRANCH   7  16
ATOM     16  O   UNL     1      -4.099  61.484  42.174  1.00  0.00    -0.302 OA
ATOM     17  H   UNL     1      -4.686  62.146  42.599  1.00  0.00     0.223 HD
ENDBRANCH   7  16
ENDBRANCH   6   7
ENDBRANCH   5   6
BRANCH   4  18
ATOM     18  O   UNL     1      -6.031  59.691  37.922  1.00  0.00    -0.385 OA
ATOM     19  H   UNL     1      -6.353  59.207  37.143  1.00  0.00     0.211 HD
ENDBRANCH   4  18
BRANCH   3  20
ATOM     20  C   UNL     1      -3.327  61.904  35.293  1.00  0.00     0.208 C 
BRANCH  20  21
ATOM     21  O   UNL     1      -3.994  61.805  34.046  1.00  0.00    -0.284 OA
BRANCH  21  22
ATOM     22  P   UNL     1      -3.699  62.931  32.922  1.00  0.00     0.469 P 
ATOM     23  O   UNL     1      -4.862  63.821  32.594  1.00  0.00    -0.228 OA
BRANCH  22  24
ATOM     24  O   UNL     1      -3.102  62.087  31.679  1.00  0.00    -0.303 OA
ATOM     25  H   UNL     1      -2.305  61.533  31.820  1.00  0.00     0.223 HD
ENDBRANCH  22  24
BRANCH  22  26
ATOM     26  O   UNL     1      -2.400  63.695  33.511  1.00  0.00    -0.303 OA
ATOM     27  H   UNL     1      -1.714  64.015  32.887  1.00  0.00     0.223 HD
ENDBRANCH  22  26
ENDBRANCH  21  22
ENDBRANCH  20  21
ENDBRANCH   3  20
BRANCH   2  28
ATOM     28  O   UNL     1      -6.210  60.459  35.289  1.00  0.00    -0.387 OA
ATOM     29  H   UNL     1      -5.596  59.717  35.154  1.00  0.00     0.211 HD
ENDBRANCH   2  28
TORSDOF 14
REMARK SMILES O=c1[nH]cc(F)c(=O)[nH]1
REMARK SMILES IDX 6 1 8 2 1 3 9 4 3 5 7 6 2 7 5 8 4 9
REMARK H PARENT 9 10 3 11
REMARK Flexibility Score: inf
ROOT
ATOM      1  F   UNL     1      -7.875  56.734  33.909  1.00  0.00    -0.199 F 
ATOM      2  O   UNL     1      -7.594  57.227  36.571  1.00  0.00    -0.266 OA
ATOM      3  O   UNL     1      -3.011  57.663  36.066  1.00  0.00    -0.248 OA
ATOM      4  N   UNL     1      -5.295  57.449  36.345  1.00  0.00    -0.272 N 
ATOM      5  N   UNL     1      -4.318  57.194  34.226  1.00  0.00    -0.311 N 
ATOM      6  C   UNL     1      -6.584  57.221  35.875  1.00  0.00     0.289 A 
ATOM      7  C   UNL     1      -4.123  57.451  35.579  1.00  0.00     0.325 A 
ATOM      8  C   UNL     1      -6.653  56.962  34.424  1.00  0.00     0.204 A 
ATOM      9  C   UNL     1      -5.549  56.959  33.679  1.00  0.00     0.132 A 
ATOM     10  H   UNL     1      -5.194  57.633  37.340  1.00  0.00     0.175 HD
ATOM     11  H   UNL     1      -3.513  57.179  33.608  1.00  0.00     0.171 HD
ENDROOT
TORSDOF 0
ENDMDL
MODEL 20
REMARK VINA RESULT:    -8.899      2.640      4.762
REMARK INTER + INTRA:         -15.950
REMARK INTER:                 -14.801
REMARK INTRA:                  -1.149
REMARK UNBOUND:                -1.589
REMARK SMILES O=P(O)(O)OC[C@H]1O[C@H](O[P@@](=O)(O)OP(=O)(O)O)[C@H](O)[C@@H]1O
REMARK SMILES IDX 8 1 21 2 7 3 19 4 9 5 10 6 11 7 12 8 14 9 15 10 16 11 17 12
REMARK SMILES IDX 18 14 13 16 20 18 6 20 5 21 2 22 1 23 3 24 4 26 22 28
REMARK H PARENT 17 13 18 15 13 17 20 19 3 25 4 27 22 29
REMARK Flexibility Score: inf
ROOT
ATOM      1  O   UNL     1      -5.871  58.872  36.031  1.00  0.00    -0.341 OA
ATOM      2  C   UNL     1      -3.894  57.574  36.135  1.00  0.00     0.179 C 
ATOM      3  C   UNL     1      -5.408  57.534  36.299  1.00  0.00     0.179 C 
ATOM      4  C   UNL     1      -3.738  58.609  35.042  1.00  0.00     0.202 C 
ATOM      5  C   UNL     1      -4.776  59.631  35.484  1.00  0.00     0.293 C 
ENDROOT
BRANCH   5   6
ATOM      6  O   UNL     1      -5.168  60.460  34.404  1.00  0.00    -0.253 OA
BRANCH   6   7
ATOM      7  P   UNL     1      -5.731  61.950  34.689  1.00  0.00     0.483 P 
ATOM      8  O   UNL     1      -7.228  62.064  34.708  1.00  0.00    -0.228 OA
BRANCH   7   9
ATOM      9  O   UNL     1      -5.010  62.876  33.576  1.00  0.00    -0.185 OA
BRANCH   9  10
ATOM     10  P   UNL     1      -3.461  62.985  33.130  1.00  0.00     0.478 P 
ATOM     11  O   UNL     1      -2.983  64.381  32.863  1.00  0.00    -0.228 OA
BRANCH  10  12
ATOM     12  O   UNL     1      -3.370  61.972  31.874  1.00  0.00    -0.302 OA
ATOM     13  H   UNL     1      -3.617  61.031  32.004  1.00  0.00     0.223 HD
ENDBRANCH  10  12
BRANCH  10  14
ATOM     14  O   UNL     1      -2.678  62.200  34.306  1.00  0.00    -0.302 OA
ATOM     15  H   UNL     1      -1.712  62.055  34.218  1.00  0.00     0.223 HD
ENDBRANCH  10  14
ENDBRANCH   9  10
ENDBRANCH   7   9
BRANCH   7  16
ATOM     16  O   UNL     1      -5.010  62.396  36.067  1.00  0.00    -0.302 OA
ATOM     17  H   UNL     1      -5.243  61.927  36.897  1.00  0.00     0.223 HD
ENDBRANCH   7  16
ENDBRANCH   6   7
ENDBRANCH   5   6
BRANCH   4  18
ATOM     18  O   UNL     1      -4.107  58.039  33.788  1.00  0.00    -0.385 OA
ATOM     19  H   UNL     1      -5.057  58.188  33.641  1.00  0.00     0.211 HD
ENDBRANCH   4  18
BRANCH   3  20
ATOM     20  C   UNL     1      -5.850  57.110  37.689  1.00  0.00     0.208 C 
BRANCH  20  21
ATOM     21  O   UNL     1      -5.549  58.151  38.603  1.00  0.00    -0.284 OA
BRANCH  21  22
ATOM     22  P   UNL     1      -6.221  58.104  40.074  1.00  0.00     0.469 P 
ATOM     23  O   UNL     1      -7.674  57.729  40.096  1.00  0.00    -0.228 OA
BRANCH  22  24
ATOM     24  O   UNL     1      -5.872  59.551  40.703  1.00  0.00    -0.303 OA
ATOM     25  H   UNL     1      -5.379  59.595  41.551  1.00  0.00     0.223 HD
ENDBRANCH  22  24
BRANCH  22  26
ATOM     26  O   UNL     1      -5.245  57.101  40.884  1.00  0.00    -0.303 OA
ATOM     27  H   UNL     1      -5.376  56.987  41.849  1.00  0.00     0.223 HD
ENDBRANCH  22  26
ENDBRANCH  21  22
ENDBRANCH  20  21
ENDBRANCH   3  20
BRANCH   2  28
ATOM     28  O   UNL     1      -3.366  56.312  35.793  1.00  0.00    -0.387 OA
ATOM     29  H   UNL     1      -3.328  56.260  34.823  1.00  0.00     0.211 HD
ENDBRANCH   2  28
TORSDOF 14
REMARK SMILES O=c1[nH]cc(F)c(=O)[nH]1
REMARK SMILES IDX 6 1 8 2 1 3 9 4 3 5 7 6 2 7 5 8 4 9
REMARK H PARENT 9 10 3 11
REMARK Flexibility Score: inf
ROOT
ATOM      1  F   UNL     1      -1.015  59.381  36.865  1.00  0.00    -0.199 F 
ATOM      2  O   UNL     1      -2.954  61.083  37.736  1.00  0.00    -0.266 OA
ATOM      3  O   UNL     1      -3.013  58.993  41.868  1.00  0.00    -0.248 OA
ATOM      4  N   UNL     1      -3.004  60.052  39.813  1.00  0.00    -0.272 N 
ATOM      5  N   UNL     1      -1.572  58.240  40.234  1.00  0.00    -0.311 N 
ATOM      6  C   UNL     1      -2.546  60.225  38.511  1.00  0.00     0.289 A 
ATOM      7  C   UNL     1      -2.561  59.085  40.725  1.00  0.00     0.325 A 
ATOM      8  C   UNL     1      -1.498  59.264  38.115  1.00  0.00     0.204 A 
ATOM      9  C   UNL     1      -1.065  58.337  38.967  1.00  0.00     0.132 A 
ATOM     10  H   UNL     1      -3.727  60.689  40.136  1.00  0.00     0.175 HD
ATOM     11  H   UNL     1      -1.202  57.513  40.838  1.00  0.00     0.171 HD
ENDROOT
TORSDOF 0
ENDMDL
