MODEL 1
REMARK VINA RESULT:    -4.773      0.000      0.000
REMARK INTER + INTRA:          -4.773
REMARK INTER:                  -4.773
REMARK INTRA:                   0.000
REMARK UNBOUND:                 0.000
REMARK SMILES O=c1[nH]cc(F)c(=O)[nH]1
REMARK SMILES IDX 6 1 8 2 1 3 9 4 3 5 7 6 2 7 5 8 4 9
REMARK H PARENT 9 10 3 11
REMARK Flexibility Score: inf
ROOT
ATOM      1  F   UNL     1       9.916  20.853  -6.689  1.00  0.00    -0.199 F 
ATOM      2  O   UNL     1       8.422  20.260  -8.886  1.00  0.00    -0.266 OA
ATOM      3  O   UNL     1       7.274  16.158  -7.069  1.00  0.00    -0.248 OA
ATOM      4  N   UNL     1       7.833  18.199  -7.998  1.00  0.00    -0.272 N 
ATOM      5  N   UNL     1       8.651  17.579  -5.887  1.00  0.00    -0.311 N 
ATOM      6  C   UNL     1       8.479  19.431  -7.984  1.00  0.00     0.289 A 
ATOM      7  C   UNL     1       7.875  17.231  -6.988  1.00  0.00     0.325 A 
ATOM      8  C   UNL     1       9.268  19.677  -6.762  1.00  0.00     0.204 A 
ATOM      9  C   UNL     1       9.321  18.768  -5.790  1.00  0.00     0.132 A 
ATOM     10  H   UNL     1       7.276  17.981  -8.820  1.00  0.00     0.175 HD
ATOM     11  H   UNL     1       8.730  16.925  -5.114  1.00  0.00     0.171 HD
ENDROOT
TORSDOF 0
ENDMDL
MODEL 2
REMARK VINA RESULT:    -4.454      1.574      2.258
REMARK INTER + INTRA:          -4.454
REMARK INTER:                  -4.454
REMARK INTRA:                   0.000
REMARK UNBOUND:                 0.000
REMARK SMILES O=c1[nH]cc(F)c(=O)[nH]1
REMARK SMILES IDX 6 1 8 2 1 3 9 4 3 5 7 6 2 7 5 8 4 9
REMARK H PARENT 9 10 3 11
REMARK Flexibility Score: inf
ROOT
ATOM      1  F   UNL     1       9.894  20.958  -6.439  1.00  0.00    -0.199 F 
ATOM      2  O   UNL     1       9.645  19.169  -4.403  1.00  0.00    -0.266 OA
ATOM      3  O   UNL     1       7.247  16.302  -7.136  1.00  0.00    -0.248 OA
ATOM      4  N   UNL     1       8.440  17.716  -5.751  1.00  0.00    -0.272 N 
ATOM      5  N   UNL     1       8.004  18.308  -7.980  1.00  0.00    -0.311 N 
ATOM      6  C   UNL     1       9.139  18.889  -5.484  1.00  0.00     0.289 A 
ATOM      7  C   UNL     1       7.851  17.363  -6.971  1.00  0.00     0.325 A 
ATOM      8  C   UNL     1       9.229  19.805  -6.636  1.00  0.00     0.204 A 
ATOM      9  C   UNL     1       8.674  19.488  -7.805  1.00  0.00     0.132 A 
ATOM     10  H   UNL     1       8.350  17.050  -4.988  1.00  0.00     0.175 HD
ATOM     11  H   UNL     1       7.602  18.122  -8.894  1.00  0.00     0.171 HD
ENDROOT
TORSDOF 0
ENDMDL
MODEL 3
REMARK VINA RESULT:    -4.324     20.367     21.034
REMARK INTER + INTRA:          -4.324
REMARK INTER:                  -4.324
REMARK INTRA:                   0.000
REMARK UNBOUND:                 0.000
REMARK SMILES O=c1[nH]cc(F)c(=O)[nH]1
REMARK SMILES IDX 6 1 8 2 1 3 9 4 3 5 7 6 2 7 5 8 4 9
REMARK H PARENT 9 10 3 11
REMARK Flexibility Score: inf
ROOT
ATOM      1  F   UNL     1       1.294  10.971   9.547  1.00  0.00    -0.199 F 
ATOM      2  O   UNL     1      -0.766   9.835  10.917  1.00  0.00    -0.266 OA
ATOM      3  O   UNL     1      -0.144   5.843   8.653  1.00  0.00    -0.248 OA
ATOM      4  N   UNL     1      -0.476   7.824   9.796  1.00  0.00    -0.272 N 
ATOM      5  N   UNL     1       1.223   7.638   8.186  1.00  0.00    -0.311 N 
ATOM      6  C   UNL     1      -0.173   9.149  10.090  1.00  0.00     0.289 A 
ATOM      7  C   UNL     1       0.179   7.014   8.861  1.00  0.00     0.325 A 
ATOM      8  C   UNL     1       0.953   9.692   9.306  1.00  0.00     0.204 A 
ATOM      9  C   UNL     1       1.588   8.937   8.412  1.00  0.00     0.132 A 
ATOM     10  H   UNL     1      -1.245   7.403  10.309  1.00  0.00     0.175 HD
ATOM     11  H   UNL     1       1.744   7.112   7.492  1.00  0.00     0.171 HD
ENDROOT
TORSDOF 0
ENDMDL
MODEL 4
REMARK VINA RESULT:    -4.304      1.565      2.991
REMARK INTER + INTRA:          -4.304
REMARK INTER:                  -4.304
REMARK INTRA:                   0.000
REMARK UNBOUND:                 0.000
REMARK SMILES O=c1[nH]cc(F)c(=O)[nH]1
REMARK SMILES IDX 6 1 8 2 1 3 9 4 3 5 7 6 2 7 5 8 4 9
REMARK H PARENT 9 10 3 11
REMARK Flexibility Score: inf
ROOT
ATOM      1  F   UNL     1       8.940  18.190  -4.649  1.00  0.00    -0.199 F 
ATOM      2  O   UNL     1       7.404  16.903  -6.491  1.00  0.00    -0.266 OA
ATOM      3  O   UNL     1       8.413  20.120  -9.666  1.00  0.00    -0.248 OA
ATOM      4  N   UNL     1       7.893  18.502  -8.099  1.00  0.00    -0.272 N 
ATOM      5  N   UNL     1       9.302  20.296  -7.547  1.00  0.00    -0.311 N 
ATOM      6  C   UNL     1       7.973  17.934  -6.832  1.00  0.00     0.289 A 
ATOM      7  C   UNL     1       8.529  19.676  -8.522  1.00  0.00     0.325 A 
ATOM      8  C   UNL     1       8.823  18.690  -5.892  1.00  0.00     0.204 A 
ATOM      9  C   UNL     1       9.436  19.809  -6.276  1.00  0.00     0.132 A 
ATOM     10  H   UNL     1       7.319  18.019  -8.785  1.00  0.00     0.175 HD
ATOM     11  H   UNL     1       9.794  21.154  -7.780  1.00  0.00     0.171 HD
ENDROOT
TORSDOF 0
ENDMDL
MODEL 5
REMARK VINA RESULT:    -4.260     19.540     20.221
REMARK INTER + INTRA:          -4.260
REMARK INTER:                  -4.260
REMARK INTRA:                   0.000
REMARK UNBOUND:                 0.000
REMARK SMILES O=c1[nH]cc(F)c(=O)[nH]1
REMARK SMILES IDX 6 1 8 2 1 3 9 4 3 5 7 6 2 7 5 8 4 9
REMARK H PARENT 9 10 3 11
REMARK Flexibility Score: inf
ROOT
ATOM      1  F   UNL     1       0.794  10.829   8.142  1.00  0.00    -0.199 F 
ATOM      2  O   UNL     1      -0.694   9.350   6.407  1.00  0.00    -0.266 OA
ATOM      3  O   UNL     1       0.430   5.466   8.665  1.00  0.00    -0.248 OA
ATOM      4  N   UNL     1      -0.144   7.390   7.520  1.00  0.00    -0.272 N 
ATOM      5  N   UNL     1       1.258   7.488   9.400  1.00  0.00    -0.311 N 
ATOM      6  C   UNL     1      -0.108   8.764   7.311  1.00  0.00     0.289 A 
ATOM      7  C   UNL     1       0.511   6.689   8.540  1.00  0.00     0.325 A 
ATOM      8  C   UNL     1       0.719   9.495   8.291  1.00  0.00     0.204 A 
ATOM      9  C   UNL     1       1.350   8.846   9.268  1.00  0.00     0.132 A 
ATOM     10  H   UNL     1      -0.701   6.840   6.870  1.00  0.00     0.175 HD
ATOM     11  H   UNL     1       1.762   7.049  10.165  1.00  0.00     0.171 HD
ENDROOT
TORSDOF 0
ENDMDL
MODEL 6
REMARK VINA RESULT:    -4.122     19.303     20.197
REMARK INTER + INTRA:          -4.122
REMARK INTER:                  -4.122
REMARK INTRA:                   0.000
REMARK UNBOUND:                 0.000
REMARK SMILES O=c1[nH]cc(F)c(=O)[nH]1
REMARK SMILES IDX 6 1 8 2 1 3 9 4 3 5 7 6 2 7 5 8 4 9
REMARK H PARENT 9 10 3 11
REMARK Flexibility Score: inf
ROOT
ATOM      1  F   UNL     1      16.963   4.944   1.837  1.00  0.00    -0.199 F 
ATOM      2  O   UNL     1      15.551   3.319   0.171  1.00  0.00    -0.266 OA
ATOM      3  O   UNL     1      15.463  -0.006   3.393  1.00  0.00    -0.248 OA
ATOM      4  N   UNL     1      15.495   1.637   1.768  1.00  0.00    -0.272 N 
ATOM      5  N   UNL     1      16.525   1.989   3.847  1.00  0.00    -0.311 N 
ATOM      6  C   UNL     1      15.838   2.895   1.285  1.00  0.00     0.289 A 
ATOM      7  C   UNL     1      15.804   1.122   3.033  1.00  0.00     0.325 A 
ATOM      8  C   UNL     1      16.601   3.715   2.246  1.00  0.00     0.204 A 
ATOM      9  C   UNL     1      16.906   3.243   3.454  1.00  0.00     0.132 A 
ATOM     10  H   UNL     1      14.967   1.033   1.143  1.00  0.00     0.175 HD
ATOM     11  H   UNL     1      16.787   1.684   4.780  1.00  0.00     0.171 HD
ENDROOT
TORSDOF 0
ENDMDL
MODEL 7
REMARK VINA RESULT:    -3.980     29.175     29.969
REMARK INTER + INTRA:          -3.980
REMARK INTER:                  -3.980
REMARK INTRA:                   0.000
REMARK UNBOUND:                 0.000
REMARK SMILES O=c1[nH]cc(F)c(=O)[nH]1
REMARK SMILES IDX 6 1 8 2 1 3 9 4 3 5 7 6 2 7 5 8 4 9
REMARK H PARENT 9 10 3 11
REMARK Flexibility Score: inf
ROOT
ATOM      1  F   UNL     1      12.691  -1.257  11.585  1.00  0.00    -0.199 F 
ATOM      2  O   UNL     1      10.644  -2.778  12.539  1.00  0.00    -0.266 OA
ATOM      3  O   UNL     1      12.491  -2.704  16.785  1.00  0.00    -0.248 OA
ATOM      4  N   UNL     1      11.550  -2.757  14.675  1.00  0.00    -0.272 N 
ATOM      5  N   UNL     1      13.556  -1.603  15.063  1.00  0.00    -0.311 N 
ATOM      6  C   UNL     1      11.521  -2.431  13.323  1.00  0.00     0.289 A 
ATOM      7  C   UNL     1      12.532  -2.378  15.597  1.00  0.00     0.325 A 
ATOM      8  C   UNL     1      12.663  -1.606  12.884  1.00  0.00     0.204 A 
ATOM      9  C   UNL     1      13.608  -1.236  13.746  1.00  0.00     0.132 A 
ATOM     10  H   UNL     1      10.784  -3.325  15.028  1.00  0.00     0.175 HD
ATOM     11  H   UNL     1      14.305  -1.290  15.673  1.00  0.00     0.171 HD
ENDROOT
TORSDOF 0
ENDMDL
MODEL 8
REMARK VINA RESULT:    -3.930     16.117     17.034
REMARK INTER + INTRA:          -3.930
REMARK INTER:                  -3.930
REMARK INTRA:                   0.000
REMARK UNBOUND:                 0.000
REMARK SMILES O=c1[nH]cc(F)c(=O)[nH]1
REMARK SMILES IDX 6 1 8 2 1 3 9 4 3 5 7 6 2 7 5 8 4 9
REMARK H PARENT 9 10 3 11
REMARK Flexibility Score: inf
ROOT
ATOM      1  F   UNL     1      -0.769   9.536   4.739  1.00  0.00    -0.199 F 
ATOM      2  O   UNL     1      -3.295   9.176   3.791  1.00  0.00    -0.266 OA
ATOM      3  O   UNL     1      -3.247  13.399   1.892  1.00  0.00    -0.248 OA
ATOM      4  N   UNL     1      -3.297  11.288   2.832  1.00  0.00    -0.272 N 
ATOM      5  N   UNL     1      -1.398  12.652   3.048  1.00  0.00    -0.311 N 
ATOM      6  C   UNL     1      -2.735  10.241   3.554  1.00  0.00     0.289 A 
ATOM      7  C   UNL     1      -2.687  12.515   2.542  1.00  0.00     0.325 A 
ATOM      8  C   UNL     1      -1.366  10.513   4.033  1.00  0.00     0.204 A 
ATOM      9  C   UNL     1      -0.769  11.674   3.769  1.00  0.00     0.132 A 
ATOM     10  H   UNL     1      -4.240  11.150   2.479  1.00  0.00     0.175 HD
ATOM     11  H   UNL     1      -0.892  13.515   2.878  1.00  0.00     0.171 HD
ENDROOT
TORSDOF 0
ENDMDL
MODEL 9
REMARK VINA RESULT:    -3.926     13.922     15.010
REMARK INTER + INTRA:          -3.926
REMARK INTER:                  -3.926
REMARK INTRA:                   0.000
REMARK UNBOUND:                 0.000
REMARK SMILES O=c1[nH]cc(F)c(=O)[nH]1
REMARK SMILES IDX 6 1 8 2 1 3 9 4 3 5 7 6 2 7 5 8 4 9
REMARK H PARENT 9 10 3 11
REMARK Flexibility Score: inf
ROOT
ATOM      1  F   UNL     1       3.454  11.310   5.307  1.00  0.00    -0.199 F 
ATOM      2  O   UNL     1       0.844  11.282   6.079  1.00  0.00    -0.266 OA
ATOM      3  O   UNL     1      -0.457  12.902   1.940  1.00  0.00    -0.248 OA
ATOM      4  N   UNL     1       0.166  12.095   4.014  1.00  0.00    -0.272 N 
ATOM      5  N   UNL     1       1.778  12.535   2.366  1.00  0.00    -0.311 N 
ATOM      6  C   UNL     1       1.107  11.667   4.945  1.00  0.00     0.289 A 
ATOM      7  C   UNL     1       0.431  12.539   2.713  1.00  0.00     0.325 A 
ATOM      8  C   UNL     1       2.497  11.712   4.452  1.00  0.00     0.204 A 
ATOM      9  C   UNL     1       2.769  12.132   3.218  1.00  0.00     0.132 A 
ATOM     10  H   UNL     1      -0.808  12.083   4.305  1.00  0.00     0.175 HD
ATOM     11  H   UNL     1       2.047  12.846   1.437  1.00  0.00     0.171 HD
ENDROOT
TORSDOF 0
ENDMDL
