MODEL 1
REMARK VINA RESULT:    -6.392      0.000      0.000
REMARK INTER + INTRA:         -12.090
REMARK INTER:                 -10.315
REMARK INTRA:                  -1.776
REMARK UNBOUND:                -1.776
REMARK SMILES O=P(O)(O)OC[C@H]1O[C@H](O[P@@](=O)(O)OP(=O)(O)O)[C@H](O)[C@@H]1O
REMARK SMILES IDX 8 1 21 2 7 3 19 4 9 5 10 6 11 7 12 8 14 9 15 10 16 11 17 12
REMARK SMILES IDX 18 14 13 16 20 18 6 20 5 21 2 22 1 23 3 24 4 26 22 28
REMARK H PARENT 17 13 18 15 13 17 20 19 3 25 4 27 22 29
REMARK Flexibility Score: inf
ROOT
ATOM      1  O   UNL     1       0.534  11.305   4.670  1.00  0.00    -0.341 OA
ATOM      2  C   UNL     1       2.544  12.387   4.046  1.00  0.00     0.179 C 
ATOM      3  C   UNL     1       1.966  11.166   4.749  1.00  0.00     0.179 C 
ATOM      4  C   UNL     1       1.507  12.635   2.973  1.00  0.00     0.202 C 
ATOM      5  C   UNL     1       0.231  12.383   3.764  1.00  0.00     0.293 C 
ENDROOT
BRANCH   5   6
ATOM      6  O   UNL     1      -0.854  12.087   2.902  1.00  0.00    -0.253 OA
BRANCH   6   7
ATOM      7  P   UNL     1      -2.359  12.513   3.318  1.00  0.00     0.483 P 
ATOM      8  O   UNL     1      -2.501  13.928   3.802  1.00  0.00    -0.228 OA
BRANCH   7   9
ATOM      9  O   UNL     1      -2.814  11.396   4.394  1.00  0.00    -0.185 OA
BRANCH   9  10
ATOM     10  P   UNL     1      -2.913   9.787   4.275  1.00  0.00     0.478 P 
ATOM     11  O   UNL     1      -3.520   9.107   5.466  1.00  0.00    -0.228 OA
BRANCH  10  12
ATOM     12  O   UNL     1      -1.395   9.352   3.931  1.00  0.00    -0.302 OA
ATOM     13  H   UNL     1      -1.182   8.398   3.845  1.00  0.00     0.223 HD
ENDBRANCH  10  12
BRANCH  10  14
ATOM     14  O   UNL     1      -3.695   9.564   2.878  1.00  0.00    -0.302 OA
ATOM     15  H   UNL     1      -4.157   8.712   2.724  1.00  0.00     0.223 HD
ENDBRANCH  10  14
ENDBRANCH   9  10
ENDBRANCH   7   9
BRANCH   7  16
ATOM     16  O   UNL     1      -3.251  12.161   2.016  1.00  0.00    -0.302 OA
ATOM     17  H   UNL     1      -4.139  12.568   1.925  1.00  0.00     0.223 HD
ENDBRANCH   7  16
ENDBRANCH   6   7
ENDBRANCH   5   6
BRANCH   4  18
ATOM     18  O   UNL     1       1.647  11.664   1.937  1.00  0.00    -0.385 OA
ATOM     19  H   UNL     1       0.976  11.832   1.255  1.00  0.00     0.211 HD
ENDBRANCH   4  18
BRANCH   3  20
ATOM     20  C   UNL     1       2.390  11.054   6.203  1.00  0.00     0.208 C 
BRANCH  20  21
ATOM     21  O   UNL     1       2.385   9.687   6.577  1.00  0.00    -0.284 OA
BRANCH  21  22
ATOM     22  P   UNL     1       1.111   9.116   7.396  1.00  0.00     0.469 P 
ATOM     23  O   UNL     1       0.412  10.121   8.264  1.00  0.00    -0.228 OA
BRANCH  22  24
ATOM     24  O   UNL     1       1.699   7.825   8.171  1.00  0.00    -0.303 OA
ATOM     25  H   UNL     1       2.585   7.884   8.590  1.00  0.00     0.223 HD
ENDBRANCH  22  24
BRANCH  22  26
ATOM     26  O   UNL     1       0.196   8.466   6.231  1.00  0.00    -0.303 OA
ATOM     27  H   UNL     1      -0.758   8.693   6.195  1.00  0.00     0.223 HD
ENDBRANCH  22  26
ENDBRANCH  21  22
ENDBRANCH  20  21
ENDBRANCH   3  20
BRANCH   2  28
ATOM     28  O   UNL     1       3.835  12.140   3.532  1.00  0.00    -0.387 OA
ATOM     29  H   UNL     1       3.880  12.532   2.644  1.00  0.00     0.211 HD
ENDBRANCH   2  28
TORSDOF 14
ENDMDL
MODEL 2
REMARK VINA RESULT:    -6.194      2.498      3.603
REMARK INTER + INTRA:         -11.772
REMARK INTER:                 -10.064
REMARK INTRA:                  -1.707
REMARK UNBOUND:                -1.776
REMARK SMILES O=P(O)(O)OC[C@H]1O[C@H](O[P@@](=O)(O)OP(=O)(O)O)[C@H](O)[C@@H]1O
REMARK SMILES IDX 8 1 21 2 7 3 19 4 9 5 10 6 11 7 12 8 14 9 15 10 16 11 17 12
REMARK SMILES IDX 18 14 13 16 20 18 6 20 5 21 2 22 1 23 3 24 4 26 22 28
REMARK H PARENT 17 13 18 15 13 17 20 19 3 25 4 27 22 29
REMARK Flexibility Score: inf
ROOT
ATOM      1  O   UNL     1      -1.834  11.174   6.183  1.00  0.00    -0.341 OA
ATOM      2  C   UNL     1      -0.010   9.773   5.625  1.00  0.00     0.179 C 
ATOM      3  C   UNL     1      -1.104  10.025   6.655  1.00  0.00     0.179 C 
ATOM      4  C   UNL     1      -0.694  10.211   4.348  1.00  0.00     0.202 C 
ATOM      5  C   UNL     1      -1.409  11.462   4.837  1.00  0.00     0.293 C 
ENDROOT
BRANCH   5   6
ATOM      6  O   UNL     1      -2.487  11.801   3.982  1.00  0.00    -0.253 OA
BRANCH   6   7
ATOM      7  P   UNL     1      -2.397  13.120   3.049  1.00  0.00     0.483 P 
ATOM      8  O   UNL     1      -1.015  13.684   2.888  1.00  0.00    -0.228 OA
BRANCH   7   9
ATOM      9  O   UNL     1      -3.461  14.150   3.699  1.00  0.00    -0.185 OA
BRANCH   9  10
ATOM     10  P   UNL     1      -4.794  13.886   4.573  1.00  0.00     0.478 P 
ATOM     11  O   UNL     1      -5.671  15.089   4.756  1.00  0.00    -0.228 OA
BRANCH  10  12
ATOM     12  O   UNL     1      -4.216  13.240   5.937  1.00  0.00    -0.302 OA
ATOM     13  H   UNL     1      -3.301  12.884   5.943  1.00  0.00     0.223 HD
ENDBRANCH  10  12
BRANCH  10  14
ATOM     14  O   UNL     1      -5.488  12.632   3.826  1.00  0.00    -0.302 OA
ATOM     15  H   UNL     1      -5.918  12.775   2.956  1.00  0.00     0.223 HD
ENDBRANCH  10  14
ENDBRANCH   9  10
ENDBRANCH   7   9
BRANCH   7  16
ATOM     16  O   UNL     1      -3.105  12.681   1.662  1.00  0.00    -0.302 OA
ATOM     17  H   UNL     1      -3.207  13.348   0.950  1.00  0.00     0.223 HD
ENDBRANCH   7  16
ENDBRANCH   6   7
ENDBRANCH   5   6
BRANCH   4  18
ATOM     18  O   UNL     1      -1.642   9.223   3.949  1.00  0.00    -0.385 OA
ATOM     19  H   UNL     1      -2.054   9.500   3.114  1.00  0.00     0.211 HD
ENDBRANCH   4  18
BRANCH   3  20
ATOM     20  C   UNL     1      -0.564  10.299   8.048  1.00  0.00     0.208 C 
BRANCH  20  21
ATOM     21  O   UNL     1       0.491   9.390   8.316  1.00  0.00    -0.284 OA
BRANCH  21  22
ATOM     22  P   UNL     1       0.139   8.001   9.068  1.00  0.00     0.469 P 
ATOM     23  O   UNL     1      -0.498   6.955   8.201  1.00  0.00    -0.228 OA
BRANCH  22  24
ATOM     24  O   UNL     1      -0.734   8.466  10.346  1.00  0.00    -0.303 OA
ATOM     25  H   UNL     1      -1.320   9.248  10.262  1.00  0.00     0.223 HD
ENDBRANCH  22  24
BRANCH  22  26
ATOM     26  O   UNL     1       1.557   7.575   9.720  1.00  0.00    -0.303 OA
ATOM     27  H   UNL     1       1.827   7.978  10.572  1.00  0.00     0.223 HD
ENDBRANCH  22  26
ENDBRANCH  21  22
ENDBRANCH  20  21
ENDBRANCH   3  20
BRANCH   2  28
ATOM     28  O   UNL     1       0.399   8.422   5.608  1.00  0.00    -0.387 OA
ATOM     29  H   UNL     1       1.193   8.347   6.164  1.00  0.00     0.211 HD
ENDBRANCH   2  28
TORSDOF 14
ENDMDL
MODEL 3
REMARK VINA RESULT:    -6.093      1.823      2.626
REMARK INTER + INTRA:         -11.608
REMARK INTER:                  -9.964
REMARK INTRA:                  -1.645
REMARK UNBOUND:                -1.776
REMARK SMILES O=P(O)(O)OC[C@H]1O[C@H](O[P@@](=O)(O)OP(=O)(O)O)[C@H](O)[C@@H]1O
REMARK SMILES IDX 8 1 21 2 7 3 19 4 9 5 10 6 11 7 12 8 14 9 15 10 16 11 17 12
REMARK SMILES IDX 18 14 13 16 20 18 6 20 5 21 2 22 1 23 3 24 4 26 22 28
REMARK H PARENT 17 13 18 15 13 17 20 19 3 25 4 27 22 29
REMARK Flexibility Score: inf
ROOT
ATOM      1  O   UNL     1       0.709  11.350   4.672  1.00  0.00    -0.341 OA
ATOM      2  C   UNL     1       2.629  12.389   3.757  1.00  0.00     0.179 C 
ATOM      3  C   UNL     1       2.146  11.252   4.649  1.00  0.00     0.179 C 
ATOM      4  C   UNL     1       1.502  12.480   2.752  1.00  0.00     0.202 C 
ATOM      5  C   UNL     1       0.301  12.300   3.670  1.00  0.00     0.293 C 
ENDROOT
BRANCH   5   6
ATOM      6  O   UNL     1      -0.838  11.877   2.943  1.00  0.00    -0.253 OA
BRANCH   6   7
ATOM      7  P   UNL     1      -2.294  12.494   3.288  1.00  0.00     0.483 P 
ATOM      8  O   UNL     1      -2.281  13.926   3.739  1.00  0.00    -0.228 OA
BRANCH   7   9
ATOM      9  O   UNL     1      -2.926  11.466   4.364  1.00  0.00    -0.185 OA
BRANCH   9  10
ATOM     10  P   UNL     1      -3.036   9.854   4.354  1.00  0.00     0.478 P 
ATOM     11  O   UNL     1      -3.765   9.268   5.526  1.00  0.00    -0.228 OA
BRANCH  10  12
ATOM     12  O   UNL     1      -1.498   9.384   4.193  1.00  0.00    -0.302 OA
ATOM     13  H   UNL     1      -1.255   8.464   4.432  1.00  0.00     0.223 HD
ENDBRANCH  10  12
BRANCH  10  14
ATOM     14  O   UNL     1      -3.681   9.533   2.907  1.00  0.00    -0.302 OA
ATOM     15  H   UNL     1      -4.614   9.232   2.860  1.00  0.00     0.223 HD
ENDBRANCH  10  14
ENDBRANCH   9  10
ENDBRANCH   7   9
BRANCH   7  16
ATOM     16  O   UNL     1      -3.172  12.222   1.956  1.00  0.00    -0.302 OA
ATOM     17  H   UNL     1      -3.945  12.798   1.772  1.00  0.00     0.223 HD
ENDBRANCH   7  16
ENDBRANCH   6   7
ENDBRANCH   5   6
BRANCH   4  18
ATOM     18  O   UNL     1       1.590  11.391   1.834  1.00  0.00    -0.385 OA
ATOM     19  H   UNL     1       2.416  11.471   1.329  1.00  0.00     0.211 HD
ENDBRANCH   4  18
BRANCH   3  20
ATOM     20  C   UNL     1       2.687  11.331   6.066  1.00  0.00     0.208 C 
BRANCH  20  21
ATOM     21  O   UNL     1       4.049  10.937   6.058  1.00  0.00    -0.284 OA
BRANCH  21  22
ATOM     22  P   UNL     1       5.163  12.001   6.556  1.00  0.00     0.469 P 
ATOM     23  O   UNL     1       4.674  13.011   7.552  1.00  0.00    -0.228 OA
BRANCH  22  24
ATOM     24  O   UNL     1       5.751  12.613   5.181  1.00  0.00    -0.303 OA
ATOM     25  H   UNL     1       6.386  13.360   5.226  1.00  0.00     0.223 HD
ENDBRANCH  22  24
BRANCH  22  26
ATOM     26  O   UNL     1       6.360  11.049   7.082  1.00  0.00    -0.303 OA
ATOM     27  H   UNL     1       7.259  11.429   7.180  1.00  0.00     0.223 HD
ENDBRANCH  22  26
ENDBRANCH  21  22
ENDBRANCH  20  21
ENDBRANCH   3  20
BRANCH   2  28
ATOM     28  O   UNL     1       3.882  12.107   3.173  1.00  0.00    -0.387 OA
ATOM     29  H   UNL     1       4.283  12.953   2.910  1.00  0.00     0.211 HD
ENDBRANCH   2  28
TORSDOF 14
ENDMDL
MODEL 4
REMARK VINA RESULT:    -6.063      1.528      4.885
REMARK INTER + INTRA:         -11.561
REMARK INTER:                  -9.544
REMARK INTRA:                  -2.017
REMARK UNBOUND:                -1.776
REMARK SMILES O=P(O)(O)OC[C@H]1O[C@H](O[P@@](=O)(O)OP(=O)(O)O)[C@H](O)[C@@H]1O
REMARK SMILES IDX 8 1 21 2 7 3 19 4 9 5 10 6 11 7 12 8 14 9 15 10 16 11 17 12
REMARK SMILES IDX 18 14 13 16 20 18 6 20 5 21 2 22 1 23 3 24 4 26 22 28
REMARK H PARENT 17 13 18 15 13 17 20 19 3 25 4 27 22 29
REMARK Flexibility Score: inf
ROOT
ATOM      1  O   UNL     1       0.259  11.959   5.257  1.00  0.00    -0.341 OA
ATOM      2  C   UNL     1       1.273  11.706   3.133  1.00  0.00     0.179 C 
ATOM      3  C   UNL     1       0.077  12.298   3.868  1.00  0.00     0.179 C 
ATOM      4  C   UNL     1       2.360  11.834   4.177  1.00  0.00     0.202 C 
ATOM      5  C   UNL     1       1.588  11.431   5.426  1.00  0.00     0.293 C 
ENDROOT
BRANCH   5   6
ATOM      6  O   UNL     1       2.224  11.910   6.597  1.00  0.00    -0.253 OA
BRANCH   6   7
ATOM      7  P   UNL     1       1.651  11.504   8.055  1.00  0.00     0.483 P 
ATOM      8  O   UNL     1       2.580  11.789   9.199  1.00  0.00    -0.228 OA
BRANCH   7   9
ATOM      9  O   UNL     1       1.237   9.948   7.909  1.00  0.00    -0.185 OA
BRANCH   9  10
ATOM     10  P   UNL     1      -0.176   9.200   8.145  1.00  0.00     0.478 P 
ATOM     11  O   UNL     1      -0.123   7.707   8.012  1.00  0.00    -0.228 OA
BRANCH  10  12
ATOM     12  O   UNL     1      -1.165   9.950   7.110  1.00  0.00    -0.302 OA
ATOM     13  H   UNL     1      -2.012   9.520   6.866  1.00  0.00     0.223 HD
ENDBRANCH  10  12
BRANCH  10  14
ATOM     14  O   UNL     1      -0.653   9.750   9.588  1.00  0.00    -0.302 OA
ATOM     15  H   UNL     1      -0.157  10.488  10.003  1.00  0.00     0.223 HD
ENDBRANCH  10  14
ENDBRANCH   9  10
ENDBRANCH   7   9
BRANCH   7  16
ATOM     16  O   UNL     1       0.224  12.260   8.151  1.00  0.00    -0.302 OA
ATOM     17  H   UNL     1      -0.291  12.199   8.984  1.00  0.00     0.223 HD
ENDBRANCH   7  16
ENDBRANCH   6   7
ENDBRANCH   5   6
BRANCH   4  18
ATOM     18  O   UNL     1       2.776  13.195   4.272  1.00  0.00    -0.385 OA
ATOM     19  H   UNL     1       3.690  13.224   4.601  1.00  0.00     0.211 HD
ENDBRANCH   4  18
BRANCH   3  20
ATOM     20  C   UNL     1      -1.255  11.756   3.380  1.00  0.00     0.208 C 
BRANCH  20  21
ATOM     21  O   UNL     1      -1.440  10.453   3.909  1.00  0.00    -0.284 OA
BRANCH  21  22
ATOM     22  P   UNL     1      -2.940   9.845   3.954  1.00  0.00     0.469 P 
ATOM     23  O   UNL     1      -3.362   9.297   5.286  1.00  0.00    -0.228 OA
BRANCH  22  24
ATOM     24  O   UNL     1      -2.963   8.788   2.732  1.00  0.00    -0.303 OA
ATOM     25  H   UNL     1      -2.643   7.874   2.888  1.00  0.00     0.223 HD
ENDBRANCH  22  24
BRANCH  22  26
ATOM     26  O   UNL     1      -3.841  11.070   3.404  1.00  0.00    -0.303 OA
ATOM     27  H   UNL     1      -3.444  11.965   3.349  1.00  0.00     0.223 HD
ENDBRANCH  22  26
ENDBRANCH  21  22
ENDBRANCH  20  21
ENDBRANCH   3  20
BRANCH   2  28
ATOM     28  O   UNL     1       1.557  12.402   1.939  1.00  0.00    -0.387 OA
ATOM     29  H   UNL     1       0.814  12.258   1.328  1.00  0.00     0.211 HD
ENDBRANCH   2  28
TORSDOF 14
ENDMDL
MODEL 5
REMARK VINA RESULT:    -5.885      1.881      2.464
REMARK INTER + INTRA:         -11.274
REMARK INTER:                  -9.944
REMARK INTRA:                  -1.330
REMARK UNBOUND:                -1.776
REMARK SMILES O=P(O)(O)OC[C@H]1O[C@H](O[P@@](=O)(O)OP(=O)(O)O)[C@H](O)[C@@H]1O
REMARK SMILES IDX 8 1 21 2 7 3 19 4 9 5 10 6 11 7 12 8 14 9 15 10 16 11 17 12
REMARK SMILES IDX 18 14 13 16 20 18 6 20 5 21 2 22 1 23 3 24 4 26 22 28
REMARK H PARENT 17 13 18 15 13 17 20 19 3 25 4 27 22 29
REMARK Flexibility Score: inf
ROOT
ATOM      1  O   UNL     1      -0.261  10.005   5.624  1.00  0.00    -0.341 OA
ATOM      2  C   UNL     1       1.696  11.316   5.863  1.00  0.00     0.179 C 
ATOM      3  C   UNL     1       1.085   9.947   6.137  1.00  0.00     0.179 C 
ATOM      4  C   UNL     1       1.012  11.696   4.568  1.00  0.00     0.202 C 
ATOM      5  C   UNL     1      -0.403  11.214   4.855  1.00  0.00     0.293 C 
ENDROOT
BRANCH   5   6
ATOM      6  O   UNL     1      -1.129  11.018   3.654  1.00  0.00    -0.253 OA
BRANCH   6   7
ATOM      7  P   UNL     1      -2.603  11.663   3.484  1.00  0.00     0.483 P 
ATOM      8  O   UNL     1      -2.671  12.845   2.560  1.00  0.00    -0.228 OA
BRANCH   7   9
ATOM      9  O   UNL     1      -3.087  11.974   4.995  1.00  0.00    -0.185 OA
BRANCH   9  10
ATOM     10  P   UNL     1      -3.994  11.113   6.017  1.00  0.00     0.478 P 
ATOM     11  O   UNL     1      -4.193  11.744   7.363  1.00  0.00    -0.228 OA
BRANCH  10  12
ATOM     12  O   UNL     1      -3.262   9.672   6.031  1.00  0.00    -0.302 OA
ATOM     13  H   UNL     1      -3.258   9.133   5.211  1.00  0.00     0.223 HD
ENDBRANCH  10  12
BRANCH  10  14
ATOM     14  O   UNL     1      -5.347  10.840   5.175  1.00  0.00    -0.302 OA
ATOM     15  H   UNL     1      -5.602  11.471   4.469  1.00  0.00     0.223 HD
ENDBRANCH  10  14
ENDBRANCH   9  10
ENDBRANCH   7   9
BRANCH   7  16
ATOM     16  O   UNL     1      -3.539  10.418   3.044  1.00  0.00    -0.302 OA
ATOM     17  H   UNL     1      -4.491  10.578   2.873  1.00  0.00     0.223 HD
ENDBRANCH   7  16
ENDBRANCH   6   7
ENDBRANCH   5   6
BRANCH   4  18
ATOM     18  O   UNL     1       1.579  10.952   3.491  1.00  0.00    -0.385 OA
ATOM     19  H   UNL     1       1.569  11.501   2.689  1.00  0.00     0.211 HD
ENDBRANCH   4  18
BRANCH   3  20
ATOM     20  C   UNL     1       1.055   9.587   7.612  1.00  0.00     0.208 C 
BRANCH  20  21
ATOM     21  O   UNL     1      -0.056   8.740   7.854  1.00  0.00    -0.284 OA
BRANCH  21  22
ATOM     22  P   UNL     1       0.051   7.650   9.045  1.00  0.00     0.469 P 
ATOM     23  O   UNL     1      -0.347   6.254   8.666  1.00  0.00    -0.228 OA
BRANCH  22  24
ATOM     24  O   UNL     1      -0.804   8.310  10.248  1.00  0.00    -0.303 OA
ATOM     25  H   UNL     1      -0.686   9.263  10.448  1.00  0.00     0.223 HD
ENDBRANCH  22  24
BRANCH  22  26
ATOM     26  O   UNL     1       1.581   7.811   9.545  1.00  0.00    -0.303 OA
ATOM     27  H   UNL     1       1.769   7.801  10.507  1.00  0.00     0.223 HD
ENDBRANCH  22  26
ENDBRANCH  21  22
ENDBRANCH  20  21
ENDBRANCH   3  20
BRANCH   2  28
ATOM     28  O   UNL     1       3.101  11.256   5.760  1.00  0.00    -0.387 OA
ATOM     29  H   UNL     1       3.330  10.425   5.310  1.00  0.00     0.211 HD
ENDBRANCH   2  28
TORSDOF 14
ENDMDL
MODEL 6
REMARK VINA RESULT:    -5.844      1.821      5.468
REMARK INTER + INTRA:         -11.207
REMARK INTER:                 -10.011
REMARK INTRA:                  -1.196
REMARK UNBOUND:                -1.776
REMARK SMILES O=P(O)(O)OC[C@H]1O[C@H](O[P@@](=O)(O)OP(=O)(O)O)[C@H](O)[C@@H]1O
REMARK SMILES IDX 8 1 21 2 7 3 19 4 9 5 10 6 11 7 12 8 14 9 15 10 16 11 17 12
REMARK SMILES IDX 18 14 13 16 20 18 6 20 5 21 2 22 1 23 3 24 4 26 22 28
REMARK H PARENT 17 13 18 15 13 17 20 19 3 25 4 27 22 29
REMARK Flexibility Score: inf
ROOT
ATOM      1  O   UNL     1      -0.658  11.578   4.971  1.00  0.00    -0.341 OA
ATOM      2  C   UNL     1       0.564  11.978   2.984  1.00  0.00     0.179 C 
ATOM      3  C   UNL     1      -0.051  12.640   4.210  1.00  0.00     0.179 C 
ATOM      4  C   UNL     1       0.974  10.633   3.544  1.00  0.00     0.202 C 
ATOM      5  C   UNL     1      -0.235  10.319   4.413  1.00  0.00     0.293 C 
ENDROOT
BRANCH   5   6
ATOM      6  O   UNL     1       0.085   9.359   5.405  1.00  0.00    -0.253 OA
BRANCH   6   7
ATOM      7  P   UNL     1      -0.446   9.554   6.922  1.00  0.00     0.483 P 
ATOM      8  O   UNL     1       0.399  10.457   7.773  1.00  0.00    -0.228 OA
BRANCH   7   9
ATOM      9  O   UNL     1      -0.594   8.050   7.496  1.00  0.00    -0.185 OA
BRANCH   9  10
ATOM     10  P   UNL     1       0.083   7.331   8.774  1.00  0.00     0.478 P 
ATOM     11  O   UNL     1       0.001   5.834   8.769  1.00  0.00    -0.228 OA
BRANCH  10  12
ATOM     12  O   UNL     1      -0.636   8.057  10.026  1.00  0.00    -0.302 OA
ATOM     13  H   UNL     1      -1.308   7.561  10.541  1.00  0.00     0.223 HD
ENDBRANCH  10  12
BRANCH  10  14
ATOM     14  O   UNL     1       1.580   7.941   8.795  1.00  0.00    -0.302 OA
ATOM     15  H   UNL     1       2.257   7.559   8.197  1.00  0.00     0.223 HD
ENDBRANCH  10  14
ENDBRANCH   9  10
ENDBRANCH   7   9
BRANCH   7  16
ATOM     16  O   UNL     1      -1.980  10.039   6.752  1.00  0.00    -0.302 OA
ATOM     17  H   UNL     1      -2.605   9.904   7.496  1.00  0.00     0.223 HD
ENDBRANCH   7  16
ENDBRANCH   6   7
ENDBRANCH   5   6
BRANCH   4  18
ATOM     18  O   UNL     1       2.139  10.786   4.353  1.00  0.00    -0.385 OA
ATOM     19  H   UNL     1       1.939  11.397   5.081  1.00  0.00     0.211 HD
ENDBRANCH   4  18
BRANCH   3  20
ATOM     20  C   UNL     1      -1.097  13.685   3.866  1.00  0.00     0.208 C 
BRANCH  20  21
ATOM     21  O   UNL     1      -2.382  13.091   3.950  1.00  0.00    -0.284 OA
BRANCH  21  22
ATOM     22  P   UNL     1      -3.155  12.727   2.576  1.00  0.00     0.469 P 
ATOM     23  O   UNL     1      -2.495  13.228   1.325  1.00  0.00    -0.228 OA
BRANCH  22  24
ATOM     24  O   UNL     1      -4.659  13.264   2.827  1.00  0.00    -0.303 OA
ATOM     25  H   UNL     1      -5.082  13.829   2.145  1.00  0.00     0.223 HD
ENDBRANCH  22  24
BRANCH  22  26
ATOM     26  O   UNL     1      -3.314  11.120   2.667  1.00  0.00    -0.303 OA
ATOM     27  H   UNL     1      -2.640  10.604   3.159  1.00  0.00     0.223 HD
ENDBRANCH  22  26
ENDBRANCH  21  22
ENDBRANCH  20  21
ENDBRANCH   3  20
BRANCH   2  28
ATOM     28  O   UNL     1       1.644  12.723   2.466  1.00  0.00    -0.387 OA
ATOM     29  H   UNL     1       2.258  12.100   2.041  1.00  0.00     0.211 HD
ENDBRANCH   2  28
TORSDOF 14
ENDMDL
MODEL 7
REMARK VINA RESULT:    -5.806      2.719      6.385
REMARK INTER + INTRA:         -11.145
REMARK INTER:                  -9.593
REMARK INTRA:                  -1.552
REMARK UNBOUND:                -1.776
REMARK SMILES O=P(O)(O)OC[C@H]1O[C@H](O[P@@](=O)(O)OP(=O)(O)O)[C@H](O)[C@@H]1O
REMARK SMILES IDX 8 1 21 2 7 3 19 4 9 5 10 6 11 7 12 8 14 9 15 10 16 11 17 12
REMARK SMILES IDX 18 14 13 16 20 18 6 20 5 21 2 22 1 23 3 24 4 26 22 28
REMARK H PARENT 17 13 18 15 13 17 20 19 3 25 4 27 22 29
REMARK Flexibility Score: inf
ROOT
ATOM      1  O   UNL     1       0.283  10.751   6.840  1.00  0.00    -0.341 OA
ATOM      2  C   UNL     1      -0.318   8.605   7.637  1.00  0.00     0.179 C 
ATOM      3  C   UNL     1      -0.402   9.547   6.443  1.00  0.00     0.179 C 
ATOM      4  C   UNL     1       1.026   8.981   8.221  1.00  0.00     0.202 C 
ATOM      5  C   UNL     1       0.972  10.496   8.079  1.00  0.00     0.293 C 
ENDROOT
BRANCH   5   6
ATOM      6  O   UNL     1       2.272  11.058   8.110  1.00  0.00    -0.253 OA
BRANCH   6   7
ATOM      7  P   UNL     1       2.458  12.666   8.125  1.00  0.00     0.483 P 
ATOM      8  O   UNL     1       1.281  13.431   8.657  1.00  0.00    -0.228 OA
BRANCH   7   9
ATOM      9  O   UNL     1       2.861  13.042   6.605  1.00  0.00    -0.185 OA
BRANCH   9  10
ATOM     10  P   UNL     1       3.626  12.187   5.468  1.00  0.00     0.478 P 
ATOM     11  O   UNL     1       4.243  13.008   4.375  1.00  0.00    -0.228 OA
BRANCH  10  12
ATOM     12  O   UNL     1       2.502  11.130   4.987  1.00  0.00    -0.302 OA
ATOM     13  H   UNL     1       2.550  10.767   4.076  1.00  0.00     0.223 HD
ENDBRANCH  10  12
BRANCH  10  14
ATOM     14  O   UNL     1       4.659  11.278   6.317  1.00  0.00    -0.302 OA
ATOM     15  H   UNL     1       4.767  11.452   7.276  1.00  0.00     0.223 HD
ENDBRANCH  10  14
ENDBRANCH   9  10
ENDBRANCH   7   9
BRANCH   7  16
ATOM     16  O   UNL     1       3.834  12.904   8.943  1.00  0.00    -0.302 OA
ATOM     17  H   UNL     1       4.670  13.016   8.442  1.00  0.00     0.223 HD
ENDBRANCH   7  16
ENDBRANCH   6   7
ENDBRANCH   5   6
BRANCH   4  18
ATOM     18  O   UNL     1       2.069   8.445   7.409  1.00  0.00    -0.385 OA
ATOM     19  H   UNL     1       2.708   7.985   7.979  1.00  0.00     0.211 HD
ENDBRANCH   4  18
BRANCH   3  20
ATOM     20  C   UNL     1      -1.828   9.879   6.041  1.00  0.00     0.208 C 
BRANCH  20  21
ATOM     21  O   UNL     1      -1.998   9.578   4.666  1.00  0.00    -0.284 OA
BRANCH  21  22
ATOM     22  P   UNL     1      -3.154  10.357   3.843  1.00  0.00     0.469 P 
ATOM     23  O   UNL     1      -2.747  11.688   3.283  1.00  0.00    -0.228 OA
BRANCH  22  24
ATOM     24  O   UNL     1      -4.401  10.390   4.870  1.00  0.00    -0.303 OA
ATOM     25  H   UNL     1      -5.306  10.231   4.526  1.00  0.00     0.223 HD
ENDBRANCH  22  24
BRANCH  22  26
ATOM     26  O   UNL     1      -3.609   9.264   2.741  1.00  0.00    -0.303 OA
ATOM     27  H   UNL     1      -3.114   8.419   2.677  1.00  0.00     0.223 HD
ENDBRANCH  22  26
ENDBRANCH  21  22
ENDBRANCH  20  21
ENDBRANCH   3  20
BRANCH   2  28
ATOM     28  O   UNL     1      -0.403   7.251   7.249  1.00  0.00    -0.387 OA
ATOM     29  H   UNL     1       0.503   6.902   7.193  1.00  0.00     0.211 HD
ENDBRANCH   2  28
TORSDOF 14
ENDMDL
MODEL 8
REMARK VINA RESULT:    -5.753      3.114      6.541
REMARK INTER + INTRA:         -11.060
REMARK INTER:                  -9.443
REMARK INTRA:                  -1.617
REMARK UNBOUND:                -1.776
REMARK SMILES O=P(O)(O)OC[C@H]1O[C@H](O[P@@](=O)(O)OP(=O)(O)O)[C@H](O)[C@@H]1O
REMARK SMILES IDX 8 1 21 2 7 3 19 4 9 5 10 6 11 7 12 8 14 9 15 10 16 11 17 12
REMARK SMILES IDX 18 14 13 16 20 18 6 20 5 21 2 22 1 23 3 24 4 26 22 28
REMARK H PARENT 17 13 18 15 13 17 20 19 3 25 4 27 22 29
REMARK Flexibility Score: inf
ROOT
ATOM      1  O   UNL     1      -2.221  11.023   7.108  1.00  0.00    -0.341 OA
ATOM      2  C   UNL     1      -3.370  12.961   7.836  1.00  0.00     0.179 C 
ATOM      3  C   UNL     1      -3.527  11.632   7.106  1.00  0.00     0.179 C 
ATOM      4  C   UNL     1      -2.302  12.620   8.851  1.00  0.00     0.202 C 
ATOM      5  C   UNL     1      -1.370  11.775   7.994  1.00  0.00     0.293 C 
ENDROOT
BRANCH   5   6
ATOM      6  O   UNL     1      -0.547  10.948   8.798  1.00  0.00    -0.253 OA
BRANCH   6   7
ATOM      7  P   UNL     1       0.995  10.688   8.380  1.00  0.00     0.483 P 
ATOM      8  O   UNL     1       1.370  11.186   7.014  1.00  0.00    -0.228 OA
BRANCH   7   9
ATOM      9  O   UNL     1       1.208   9.098   8.587  1.00  0.00    -0.185 OA
BRANCH   9  10
ATOM     10  P   UNL     1       0.142   7.888   8.680  1.00  0.00     0.478 P 
ATOM     11  O   UNL     1       0.745   6.516   8.618  1.00  0.00    -0.228 OA
BRANCH  10  12
ATOM     12  O   UNL     1      -0.908   8.235   7.501  1.00  0.00    -0.302 OA
ATOM     13  H   UNL     1      -1.709   7.677   7.400  1.00  0.00     0.223 HD
ENDBRANCH  10  12
BRANCH  10  14
ATOM     14  O   UNL     1      -0.683   8.221  10.029  1.00  0.00    -0.302 OA
ATOM     15  H   UNL     1      -0.292   8.836  10.686  1.00  0.00     0.223 HD
ENDBRANCH  10  14
ENDBRANCH   9  10
ENDBRANCH   7   9
BRANCH   7  16
ATOM     16  O   UNL     1       1.854  11.338   9.587  1.00  0.00    -0.302 OA
ATOM     17  H   UNL     1       2.819  11.166   9.628  1.00  0.00     0.223 HD
ENDBRANCH   7  16
ENDBRANCH   6   7
ENDBRANCH   5   6
BRANCH   4  18
ATOM     18  O   UNL     1      -2.867  11.830   9.895  1.00  0.00    -0.385 OA
ATOM     19  H   UNL     1      -3.096  12.410  10.641  1.00  0.00     0.211 HD
ENDBRANCH   4  18
BRANCH   3  20
ATOM     20  C   UNL     1      -4.016  11.787   5.677  1.00  0.00     0.208 C 
BRANCH  20  21
ATOM     21  O   UNL     1      -4.021  10.513   5.054  1.00  0.00    -0.284 OA
BRANCH  21  22
ATOM     22  P   UNL     1      -2.927  10.215   3.900  1.00  0.00     0.469 P 
ATOM     23  O   UNL     1      -2.277  11.432   3.312  1.00  0.00    -0.228 OA
BRANCH  22  24
ATOM     24  O   UNL     1      -3.724   9.281   2.848  1.00  0.00    -0.303 OA
ATOM     25  H   UNL     1      -3.517   8.322   2.812  1.00  0.00     0.223 HD
ENDBRANCH  22  24
BRANCH  22  26
ATOM     26  O   UNL     1      -1.914   9.182   4.622  1.00  0.00    -0.303 OA
ATOM     27  H   UNL     1      -1.647   9.350   5.550  1.00  0.00     0.223 HD
ENDBRANCH  22  26
ENDBRANCH  21  22
ENDBRANCH  20  21
ENDBRANCH   3  20
BRANCH   2  28
ATOM     28  O   UNL     1      -4.582  13.390   8.417  1.00  0.00    -0.387 OA
ATOM     29  H   UNL     1      -5.061  12.600   8.720  1.00  0.00     0.211 HD
ENDBRANCH   2  28
TORSDOF 14
ENDMDL
MODEL 9
REMARK VINA RESULT:    -5.753      3.274      6.668
REMARK INTER + INTRA:         -11.060
REMARK INTER:                  -9.888
REMARK INTRA:                  -1.172
REMARK UNBOUND:                -1.776
REMARK SMILES O=P(O)(O)OC[C@H]1O[C@H](O[P@@](=O)(O)OP(=O)(O)O)[C@H](O)[C@@H]1O
REMARK SMILES IDX 8 1 21 2 7 3 19 4 9 5 10 6 11 7 12 8 14 9 15 10 16 11 17 12
REMARK SMILES IDX 18 14 13 16 20 18 6 20 5 21 2 22 1 23 3 24 4 26 22 28
REMARK H PARENT 17 13 18 15 13 17 20 19 3 25 4 27 22 29
REMARK Flexibility Score: inf
ROOT
ATOM      1  O   UNL     1       0.187  10.613   6.650  1.00  0.00    -0.341 OA
ATOM      2  C   UNL     1      -0.285   8.514   7.637  1.00  0.00     0.179 C 
ATOM      3  C   UNL     1      -0.452   9.351   6.375  1.00  0.00     0.179 C 
ATOM      4  C   UNL     1       1.057   8.996   8.141  1.00  0.00     0.202 C 
ATOM      5  C   UNL     1       0.926  10.490   7.880  1.00  0.00     0.293 C 
ENDROOT
BRANCH   5   6
ATOM      6  O   UNL     1       2.198  11.111   7.820  1.00  0.00    -0.253 OA
BRANCH   6   7
ATOM      7  P   UNL     1       2.409  12.441   6.923  1.00  0.00     0.483 P 
ATOM      8  O   UNL     1       2.892  12.187   5.524  1.00  0.00    -0.228 OA
BRANCH   7   9
ATOM      9  O   UNL     1       3.392  13.374   7.804  1.00  0.00    -0.185 OA
BRANCH   9  10
ATOM     10  P   UNL     1       3.190  14.051   9.258  1.00  0.00     0.478 P 
ATOM     11  O   UNL     1       2.022  14.986   9.357  1.00  0.00    -0.228 OA
BRANCH  10  12
ATOM     12  O   UNL     1       4.633  14.715   9.556  1.00  0.00    -0.302 OA
ATOM     13  H   UNL     1       4.671  15.631   9.906  1.00  0.00     0.223 HD
ENDBRANCH  10  12
BRANCH  10  14
ATOM     14  O   UNL     1       3.146  12.781  10.257  1.00  0.00    -0.302 OA
ATOM     15  H   UNL     1       3.157  12.938  11.225  1.00  0.00     0.223 HD
ENDBRANCH  10  14
ENDBRANCH   9  10
ENDBRANCH   7   9
BRANCH   7  16
ATOM     16  O   UNL     1       0.989  13.213   7.008  1.00  0.00    -0.302 OA
ATOM     17  H   UNL     1       0.341  13.094   6.282  1.00  0.00     0.223 HD
ENDBRANCH   7  16
ENDBRANCH   6   7
ENDBRANCH   5   6
BRANCH   4  18
ATOM     18  O   UNL     1       2.098   8.442   7.338  1.00  0.00    -0.385 OA
ATOM     19  H   UNL     1       2.625   7.832   7.881  1.00  0.00     0.211 HD
ENDBRANCH   4  18
BRANCH   3  20
ATOM     20  C   UNL     1      -1.904   9.585   5.999  1.00  0.00     0.208 C 
BRANCH  20  21
ATOM     21  O   UNL     1      -2.035   9.479   4.591  1.00  0.00    -0.284 OA
BRANCH  21  22
ATOM     22  P   UNL     1      -3.196  10.335   3.857  1.00  0.00     0.469 P 
ATOM     23  O   UNL     1      -2.787  11.707   3.410  1.00  0.00    -0.228 OA
BRANCH  22  24
ATOM     24  O   UNL     1      -4.427  10.287   4.904  1.00  0.00    -0.303 OA
ATOM     25  H   UNL     1      -4.257  10.493   5.848  1.00  0.00     0.223 HD
ENDBRANCH  22  24
BRANCH  22  26
ATOM     26  O   UNL     1      -3.677   9.346   2.671  1.00  0.00    -0.303 OA
ATOM     27  H   UNL     1      -4.411   9.629   2.086  1.00  0.00     0.223 HD
ENDBRANCH  22  26
ENDBRANCH  21  22
ENDBRANCH  20  21
ENDBRANCH   3  20
BRANCH   2  28
ATOM     28  O   UNL     1      -0.318   7.130   7.362  1.00  0.00    -0.387 OA
ATOM     29  H   UNL     1       0.587   6.851   7.140  1.00  0.00     0.211 HD
ENDBRANCH   2  28
TORSDOF 14
ENDMDL
