MODEL 1
REMARK VINA RESULT:    -9.258      0.000      0.000
REMARK INTER + INTRA:         -16.317
REMARK INTER:                 -14.941
REMARK INTRA:                  -1.376
REMARK UNBOUND:                -1.376
REMARK SMILES O=P(O)(O)OC[C@H]1O[C@H](O[P@@](=O)(O)OP(=O)(O)O)[C@H](O)[C@@H]1O
REMARK SMILES IDX 8 1 21 2 7 3 19 4 9 5 10 6 11 7 12 8 14 9 15 10 16 11 17 12
REMARK SMILES IDX 18 14 13 16 20 18 6 20 5 21 2 22 1 23 3 24 4 26 22 28
REMARK H PARENT 17 13 18 15 13 17 20 19 3 25 4 27 22 29
REMARK Flexibility Score: inf
ROOT
ATOM      1  O   UNL     1      -1.745  11.149   6.503  1.00  0.00    -0.341 OA
ATOM      2  C   UNL     1       0.011   9.840   5.604  1.00  0.00     0.179 C 
ATOM      3  C   UNL     1      -0.940   9.988   6.786  1.00  0.00     0.179 C 
ATOM      4  C   UNL     1      -0.844  10.352   4.466  1.00  0.00     0.202 C 
ATOM      5  C   UNL     1      -1.508  11.546   5.139  1.00  0.00     0.293 C 
ENDROOT
BRANCH   5   6
ATOM      6  O   UNL     1      -2.695  11.918   4.461  1.00  0.00    -0.253 OA
BRANCH   6   7
ATOM      7  P   UNL     1      -2.639  13.014   3.272  1.00  0.00     0.483 P 
ATOM      8  O   UNL     1      -1.278  13.591   3.011  1.00  0.00    -0.228 OA
BRANCH   7   9
ATOM      9  O   UNL     1      -3.757  14.111   3.678  1.00  0.00    -0.185 OA
BRANCH   9  10
ATOM     10  P   UNL     1      -5.302  13.937   4.117  1.00  0.00     0.478 P 
ATOM     11  O   UNL     1      -5.927  15.166   4.707  1.00  0.00    -0.228 OA
BRANCH  10  12
ATOM     12  O   UNL     1      -5.264  12.647   5.090  1.00  0.00    -0.302 OA
ATOM     13  H   UNL     1      -4.931  11.795   4.735  1.00  0.00     0.223 HD
ENDBRANCH  10  12
BRANCH  10  14
ATOM     14  O   UNL     1      -6.010  13.377   2.776  1.00  0.00    -0.302 OA
ATOM     15  H   UNL     1      -5.606  12.616   2.307  1.00  0.00     0.223 HD
ENDBRANCH  10  14
ENDBRANCH   9  10
ENDBRANCH   7   9
BRANCH   7  16
ATOM     16  O   UNL     1      -3.301  12.263   2.001  1.00  0.00    -0.302 OA
ATOM     17  H   UNL     1      -2.966  12.468   1.102  1.00  0.00     0.223 HD
ENDBRANCH   7  16
ENDBRANCH   6   7
ENDBRANCH   5   6
BRANCH   4  18
ATOM     18  O   UNL     1      -1.821   9.372   4.121  1.00  0.00    -0.385 OA
ATOM     19  H   UNL     1      -2.687   9.659   4.456  1.00  0.00     0.211 HD
ENDBRANCH   4  18
BRANCH   3  20
ATOM     20  C   UNL     1      -0.224  10.173   8.112  1.00  0.00     0.208 C 
BRANCH  20  21
ATOM     21  O   UNL     1       0.737   9.141   8.261  1.00  0.00    -0.284 OA
BRANCH  21  22
ATOM     22  P   UNL     1       0.258   7.725   8.883  1.00  0.00     0.469 P 
ATOM     23  O   UNL     1      -0.476   6.829   7.930  1.00  0.00    -0.228 OA
BRANCH  22  24
ATOM     24  O   UNL     1      -0.564   8.147  10.209  1.00  0.00    -0.303 OA
ATOM     25  H   UNL     1      -0.589   7.528  10.970  1.00  0.00     0.223 HD
ENDBRANCH  22  24
BRANCH  22  26
ATOM     26  O   UNL     1       1.631   7.110   9.477  1.00  0.00    -0.303 OA
ATOM     27  H   UNL     1       2.092   7.588  10.199  1.00  0.00     0.223 HD
ENDBRANCH  22  26
ENDBRANCH  21  22
ENDBRANCH  20  21
ENDBRANCH   3  20
BRANCH   2  28
ATOM     28  O   UNL     1       0.435   8.506   5.431  1.00  0.00    -0.387 OA
ATOM     29  H   UNL     1       0.720   8.403   4.507  1.00  0.00     0.211 HD
ENDBRANCH   2  28
TORSDOF 14
REMARK SMILES O=c1[nH]cc(F)c(=O)[nH]1
REMARK SMILES IDX 6 1 8 2 1 3 9 4 3 5 7 6 2 7 5 8 4 9
REMARK H PARENT 9 10 3 11
REMARK Flexibility Score: inf
ROOT
ATOM      1  F   UNL     1       4.638  12.943   6.999  1.00  0.00    -0.199 F 
ATOM      2  O   UNL     1       1.985  13.545   6.907  1.00  0.00    -0.266 OA
ATOM      3  O   UNL     1       1.773  12.202   2.481  1.00  0.00    -0.248 OA
ATOM      4  N   UNL     1       1.853  12.880   4.689  1.00  0.00    -0.272 N 
ATOM      5  N   UNL     1       3.779  12.082   3.610  1.00  0.00    -0.311 N 
ATOM      6  C   UNL     1       2.512  13.101   5.893  1.00  0.00     0.289 A 
ATOM      7  C   UNL     1       2.422  12.374   3.514  1.00  0.00     0.325 A 
ATOM      8  C   UNL     1       3.946  12.751   5.862  1.00  0.00     0.204 A 
ATOM      9  C   UNL     1       4.505  12.270   4.754  1.00  0.00     0.132 A 
ATOM     10  H   UNL     1       0.862  13.105   4.658  1.00  0.00     0.175 HD
ATOM     11  H   UNL     1       4.261  11.712   2.796  1.00  0.00     0.171 HD
ENDROOT
TORSDOF 0
ENDMDL
MODEL 2
REMARK VINA RESULT:    -9.251      3.535      6.912
REMARK INTER + INTRA:         -16.306
REMARK INTER:                 -15.171
REMARK INTRA:                  -1.135
REMARK UNBOUND:                -1.376
REMARK SMILES O=P(O)(O)OC[C@H]1O[C@H](O[P@@](=O)(O)OP(=O)(O)O)[C@H](O)[C@@H]1O
REMARK SMILES IDX 8 1 21 2 7 3 19 4 9 5 10 6 11 7 12 8 14 9 15 10 16 11 17 12
REMARK SMILES IDX 18 14 13 16 20 18 6 20 5 21 2 22 1 23 3 24 4 26 22 28
REMARK H PARENT 17 13 18 15 13 17 20 19 3 25 4 27 22 29
REMARK Flexibility Score: inf
ROOT
ATOM      1  O   UNL     1       2.236  11.206   5.501  1.00  0.00    -0.341 OA
ATOM      2  C   UNL     1       1.571  12.271   3.494  1.00  0.00     0.179 C 
ATOM      3  C   UNL     1       2.773  11.791   4.298  1.00  0.00     0.179 C 
ATOM      4  C   UNL     1       0.532  11.234   3.860  1.00  0.00     0.202 C 
ATOM      5  C   UNL     1       0.809  11.085   5.350  1.00  0.00     0.293 C 
ENDROOT
BRANCH   5   6
ATOM      6  O   UNL     1       0.307   9.855   5.841  1.00  0.00    -0.253 OA
BRANCH   6   7
ATOM      7  P   UNL     1      -0.892   9.845   6.928  1.00  0.00     0.483 P 
ATOM      8  O   UNL     1      -1.669  11.126   7.020  1.00  0.00    -0.228 OA
BRANCH   7   9
ATOM      9  O   UNL     1      -0.183   9.399   8.311  1.00  0.00    -0.185 OA
BRANCH   9  10
ATOM     10  P   UNL     1       0.596   8.043   8.714  1.00  0.00     0.478 P 
ATOM     11  O   UNL     1      -0.235   6.797   8.642  1.00  0.00    -0.228 OA
BRANCH  10  12
ATOM     12  O   UNL     1       1.199   8.387  10.174  1.00  0.00    -0.302 OA
ATOM     13  H   UNL     1       0.627   8.271  10.963  1.00  0.00     0.223 HD
ENDBRANCH  10  12
BRANCH  10  14
ATOM     14  O   UNL     1       1.898   8.062   7.756  1.00  0.00    -0.302 OA
ATOM     15  H   UNL     1       2.710   7.597   8.048  1.00  0.00     0.223 HD
ENDBRANCH  10  14
ENDBRANCH   9  10
ENDBRANCH   7   9
BRANCH   7  16
ATOM     16  O   UNL     1      -1.782   8.552   6.534  1.00  0.00    -0.302 OA
ATOM     17  H   UNL     1      -2.411   8.620   5.784  1.00  0.00     0.223 HD
ENDBRANCH   7  16
ENDBRANCH   6   7
ENDBRANCH   5   6
BRANCH   4  18
ATOM     18  O   UNL     1       0.813  10.012   3.180  1.00  0.00    -0.385 OA
ATOM     19  H   UNL     1       0.853   9.291   3.831  1.00  0.00     0.211 HD
ENDBRANCH   4  18
BRANCH   3  20
ATOM     20  C   UNL     1       3.737  12.907   4.659  1.00  0.00     0.208 C 
BRANCH  20  21
ATOM     21  O   UNL     1       5.034  12.357   4.819  1.00  0.00    -0.284 OA
BRANCH  21  22
ATOM     22  P   UNL     1       5.475  11.834   6.285  1.00  0.00     0.469 P 
ATOM     23  O   UNL     1       4.917  12.621   7.434  1.00  0.00    -0.228 OA
BRANCH  22  24
ATOM     24  O   UNL     1       7.088  11.777   6.204  1.00  0.00    -0.303 OA
ATOM     25  H   UNL     1       7.600  11.610   7.025  1.00  0.00     0.223 HD
ENDBRANCH  22  24
BRANCH  22  26
ATOM     26  O   UNL     1       5.046  10.275   6.255  1.00  0.00    -0.303 OA
ATOM     27  H   UNL     1       4.741   9.883   5.409  1.00  0.00     0.223 HD
ENDBRANCH  22  26
ENDBRANCH  21  22
ENDBRANCH  20  21
ENDBRANCH   3  20
BRANCH   2  28
ATOM     28  O   UNL     1       1.848  12.324   2.111  1.00  0.00    -0.387 OA
ATOM     29  H   UNL     1       1.001  12.415   1.643  1.00  0.00     0.211 HD
ENDBRANCH   2  28
TORSDOF 14
REMARK SMILES O=c1[nH]cc(F)c(=O)[nH]1
REMARK SMILES IDX 6 1 8 2 1 3 9 4 3 5 7 6 2 7 5 8 4 9
REMARK H PARENT 9 10 3 11
REMARK Flexibility Score: inf
ROOT
ATOM      1  F   UNL     1      -4.210  14.642   2.817  1.00  0.00    -0.199 F 
ATOM      2  O   UNL     1      -5.457  13.502   4.951  1.00  0.00    -0.266 OA
ATOM      3  O   UNL     1      -3.299   9.485   4.139  1.00  0.00    -0.248 OA
ATOM      4  N   UNL     1      -4.389  11.478   4.565  1.00  0.00    -0.272 N 
ATOM      5  N   UNL     1      -2.899  11.289   2.761  1.00  0.00    -0.311 N 
ATOM      6  C   UNL     1      -4.682  12.811   4.297  1.00  0.00     0.289 A 
ATOM      7  C   UNL     1      -3.511  10.662   3.841  1.00  0.00     0.325 A 
ATOM      8  C   UNL     1      -3.968  13.356   3.126  1.00  0.00     0.204 A 
ATOM      9  C   UNL     1      -3.129  12.595   2.425  1.00  0.00     0.132 A 
ATOM     10  H   UNL     1      -4.857  11.055   5.363  1.00  0.00     0.175 HD
ATOM     11  H   UNL     1      -2.249  10.759   2.189  1.00  0.00     0.171 HD
ENDROOT
TORSDOF 0
ENDMDL
MODEL 3
REMARK VINA RESULT:    -8.972      2.454      4.022
REMARK INTER + INTRA:         -15.855
REMARK INTER:                 -14.633
REMARK INTRA:                  -1.222
REMARK UNBOUND:                -1.376
REMARK SMILES O=P(O)(O)OC[C@H]1O[C@H](O[P@@](=O)(O)OP(=O)(O)O)[C@H](O)[C@@H]1O
REMARK SMILES IDX 8 1 21 2 7 3 19 4 9 5 10 6 11 7 12 8 14 9 15 10 16 11 17 12
REMARK SMILES IDX 18 14 13 16 20 18 6 20 5 21 2 22 1 23 3 24 4 26 22 28
REMARK H PARENT 17 13 18 15 13 17 20 19 3 25 4 27 22 29
REMARK Flexibility Score: inf
ROOT
ATOM      1  O   UNL     1      -0.614  10.744   7.458  1.00  0.00    -0.341 OA
ATOM      2  C   UNL     1       1.392   9.719   6.731  1.00  0.00     0.179 C 
ATOM      3  C   UNL     1       0.694  10.358   7.925  1.00  0.00     0.179 C 
ATOM      4  C   UNL     1       0.228   9.069   6.016  1.00  0.00     0.202 C 
ATOM      5  C   UNL     1      -0.824  10.161   6.158  1.00  0.00     0.293 C 
ENDROOT
BRANCH   5   6
ATOM      6  O   UNL     1      -2.130   9.635   5.997  1.00  0.00    -0.253 OA
BRANCH   6   7
ATOM      7  P   UNL     1      -3.405  10.631   5.959  1.00  0.00     0.483 P 
ATOM      8  O   UNL     1      -4.738   9.945   5.881  1.00  0.00    -0.228 OA
BRANCH   7   9
ATOM      9  O   UNL     1      -3.101  11.632   4.726  1.00  0.00    -0.185 OA
BRANCH   9  10
ATOM     10  P   UNL     1      -3.967  12.849   4.111  1.00  0.00     0.478 P 
ATOM     11  O   UNL     1      -3.494  14.217   4.506  1.00  0.00    -0.228 OA
BRANCH  10  12
ATOM     12  O   UNL     1      -5.478  12.486   4.555  1.00  0.00    -0.302 OA
ATOM     13  H   UNL     1      -5.652  11.619   4.979  1.00  0.00     0.223 HD
ENDBRANCH  10  12
BRANCH  10  14
ATOM     14  O   UNL     1      -3.959  12.547   2.523  1.00  0.00    -0.302 OA
ATOM     15  H   UNL     1      -3.861  13.296   1.897  1.00  0.00     0.223 HD
ENDBRANCH  10  14
ENDBRANCH   9  10
ENDBRANCH   7   9
BRANCH   7  16
ATOM     16  O   UNL     1      -3.216  11.576   7.259  1.00  0.00    -0.302 OA
ATOM     17  H   UNL     1      -3.888  11.540   7.973  1.00  0.00     0.223 HD
ENDBRANCH   7  16
ENDBRANCH   6   7
ENDBRANCH   5   6
BRANCH   4  18
ATOM     18  O   UNL     1      -0.176   7.898   6.723  1.00  0.00    -0.385 OA
ATOM     19  H   UNL     1       0.485   7.700   7.408  1.00  0.00     0.211 HD
ENDBRANCH   4  18
BRANCH   3  20
ATOM     20  C   UNL     1       1.423  11.576   8.465  1.00  0.00     0.208 C 
BRANCH  20  21
ATOM     21  O   UNL     1       2.593  11.788   7.692  1.00  0.00    -0.284 OA
BRANCH  21  22
ATOM     22  P   UNL     1       3.537  13.053   8.053  1.00  0.00     0.469 P 
ATOM     23  O   UNL     1       3.191  14.327   7.339  1.00  0.00    -0.228 OA
BRANCH  22  24
ATOM     24  O   UNL     1       5.034  12.500   7.796  1.00  0.00    -0.303 OA
ATOM     25  H   UNL     1       5.795  13.098   7.957  1.00  0.00     0.223 HD
ENDBRANCH  22  24
BRANCH  22  26
ATOM     26  O   UNL     1       3.438  13.126   9.665  1.00  0.00    -0.303 OA
ATOM     27  H   UNL     1       3.785  12.378  10.197  1.00  0.00     0.223 HD
ENDBRANCH  22  26
ENDBRANCH  21  22
ENDBRANCH  20  21
ENDBRANCH   3  20
BRANCH   2  28
ATOM     28  O   UNL     1       2.388   8.803   7.130  1.00  0.00    -0.387 OA
ATOM     29  H   UNL     1       2.462   8.849   8.098  1.00  0.00     0.211 HD
ENDBRANCH   2  28
TORSDOF 14
REMARK SMILES O=c1[nH]cc(F)c(=O)[nH]1
REMARK SMILES IDX 6 1 8 2 1 3 9 4 3 5 7 6 2 7 5 8 4 9
REMARK H PARENT 9 10 3 11
REMARK Flexibility Score: inf
ROOT
ATOM      1  F   UNL     1       1.923  11.233   2.020  1.00  0.00    -0.199 F 
ATOM      2  O   UNL     1       3.347  11.984   4.215  1.00  0.00    -0.266 OA
ATOM      3  O   UNL     1      -0.330  14.238   5.901  1.00  0.00    -0.248 OA
ATOM      4  N   UNL     1       1.520  13.122   5.081  1.00  0.00    -0.272 N 
ATOM      5  N   UNL     1      -0.496  13.145   3.879  1.00  0.00    -0.311 N 
ATOM      6  C   UNL     1       2.179  12.347   4.131  1.00  0.00     0.289 A 
ATOM      7  C   UNL     1       0.189  13.553   5.018  1.00  0.00     0.325 A 
ATOM      8  C   UNL     1       1.340  11.982   2.973  1.00  0.00     0.204 A 
ATOM      9  C   UNL     1       0.073  12.383   2.895  1.00  0.00     0.132 A 
ATOM     10  H   UNL     1       2.055  13.400   5.899  1.00  0.00     0.175 HD
ATOM     11  H   UNL     1      -1.467  13.420   3.764  1.00  0.00     0.171 HD
ENDROOT
TORSDOF 0
ENDMDL
MODEL 4
REMARK VINA RESULT:    -8.950      2.948      7.228
REMARK INTER + INTRA:         -15.820
REMARK INTER:                 -14.724
REMARK INTRA:                  -1.095
REMARK UNBOUND:                -1.376
REMARK SMILES O=P(O)(O)OC[C@H]1O[C@H](O[P@@](=O)(O)OP(=O)(O)O)[C@H](O)[C@@H]1O
REMARK SMILES IDX 8 1 21 2 7 3 19 4 9 5 10 6 11 7 12 8 14 9 15 10 16 11 17 12
REMARK SMILES IDX 18 14 13 16 20 18 6 20 5 21 2 22 1 23 3 24 4 26 22 28
REMARK H PARENT 17 13 18 15 13 17 20 19 3 25 4 27 22 29
REMARK Flexibility Score: inf
ROOT
ATOM      1  O   UNL     1      -0.271  12.137   5.142  1.00  0.00    -0.341 OA
ATOM      2  C   UNL     1       0.659  12.048   2.967  1.00  0.00     0.179 C 
ATOM      3  C   UNL     1       0.149  12.985   4.055  1.00  0.00     0.179 C 
ATOM      4  C   UNL     1       1.243  10.922   3.791  1.00  0.00     0.202 C 
ATOM      5  C   UNL     1       0.181  10.796   4.874  1.00  0.00     0.293 C 
ENDROOT
BRANCH   5   6
ATOM      6  O   UNL     1       0.699  10.152   6.024  1.00  0.00    -0.253 OA
BRANCH   6   7
ATOM      7  P   UNL     1      -0.308   9.488   7.103  1.00  0.00     0.483 P 
ATOM      8  O   UNL     1      -0.754  10.412   8.200  1.00  0.00    -0.228 OA
BRANCH   7   9
ATOM      9  O   UNL     1       0.468   8.168   7.624  1.00  0.00    -0.185 OA
BRANCH   9  10
ATOM     10  P   UNL     1      -0.035   6.932   8.535  1.00  0.00     0.478 P 
ATOM     11  O   UNL     1       1.017   5.907   8.836  1.00  0.00    -0.228 OA
BRANCH  10  12
ATOM     12  O   UNL     1      -1.324   6.383   7.728  1.00  0.00    -0.302 OA
ATOM     13  H   UNL     1      -1.221   6.129   6.786  1.00  0.00     0.223 HD
ENDBRANCH  10  12
BRANCH  10  14
ATOM     14  O   UNL     1      -0.681   7.660   9.826  1.00  0.00    -0.302 OA
ATOM     15  H   UNL     1      -1.581   8.042   9.755  1.00  0.00     0.223 HD
ENDBRANCH  10  14
ENDBRANCH   9  10
ENDBRANCH   7   9
BRANCH   7  16
ATOM     16  O   UNL     1      -1.513   8.882   6.210  1.00  0.00    -0.302 OA
ATOM     17  H   UNL     1      -1.804   9.372   5.412  1.00  0.00     0.223 HD
ENDBRANCH   7  16
ENDBRANCH   6   7
ENDBRANCH   5   6
BRANCH   4  18
ATOM     18  O   UNL     1       2.483  11.339   4.359  1.00  0.00    -0.385 OA
ATOM     19  H   UNL     1       2.333  11.609   5.281  1.00  0.00     0.211 HD
ENDBRANCH   4  18
BRANCH   3  20
ATOM     20  C   UNL     1      -1.014  13.851   3.604  1.00  0.00     0.208 C 
BRANCH  20  21
ATOM     21  O   UNL     1      -2.225  13.150   3.838  1.00  0.00    -0.284 OA
BRANCH  21  22
ATOM     22  P   UNL     1      -3.112  12.696   2.563  1.00  0.00     0.469 P 
ATOM     23  O   UNL     1      -2.604  13.172   1.234  1.00  0.00    -0.228 OA
BRANCH  22  24
ATOM     24  O   UNL     1      -4.607  13.178   2.945  1.00  0.00    -0.303 OA
ATOM     25  H   UNL     1      -5.067  12.750   3.698  1.00  0.00     0.223 HD
ENDBRANCH  22  24
BRANCH  22  26
ATOM     26  O   UNL     1      -3.185  11.089   2.729  1.00  0.00    -0.303 OA
ATOM     27  H   UNL     1      -4.018  10.625   2.496  1.00  0.00     0.223 HD
ENDBRANCH  22  26
ENDBRANCH  21  22
ENDBRANCH  20  21
ENDBRANCH   3  20
BRANCH   2  28
ATOM     28  O   UNL     1       1.601  12.677   2.127  1.00  0.00    -0.387 OA
ATOM     29  H   UNL     1       2.031  11.987   1.595  1.00  0.00     0.211 HD
ENDBRANCH   2  28
TORSDOF 14
REMARK SMILES O=c1[nH]cc(F)c(=O)[nH]1
REMARK SMILES IDX 6 1 8 2 1 3 9 4 3 5 7 6 2 7 5 8 4 9
REMARK H PARENT 9 10 3 11
REMARK Flexibility Score: inf
ROOT
ATOM      1  F   UNL     1      -3.311  15.899   7.168  1.00  0.00    -0.199 F 
ATOM      2  O   UNL     1      -5.537  14.944   5.926  1.00  0.00    -0.266 OA
ATOM      3  O   UNL     1      -3.878  10.627   6.144  1.00  0.00    -0.248 OA
ATOM      4  N   UNL     1      -4.727  12.772   6.022  1.00  0.00    -0.272 N 
ATOM      5  N   UNL     1      -2.635  12.366   7.005  1.00  0.00    -0.311 N 
ATOM      6  C   UNL     1      -4.665  14.143   6.246  1.00  0.00     0.289 A 
ATOM      7  C   UNL     1      -3.753  11.831   6.374  1.00  0.00     0.325 A 
ATOM      8  C   UNL     1      -3.429  14.582   6.923  1.00  0.00     0.204 A 
ATOM      9  C   UNL     1      -2.491  13.702   7.265  1.00  0.00     0.132 A 
ATOM     10  H   UNL     1      -5.560  12.419   5.558  1.00  0.00     0.175 HD
ATOM     11  H   UNL     1      -1.886  11.743   7.290  1.00  0.00     0.171 HD
ENDROOT
TORSDOF 0
ENDMDL
MODEL 5
REMARK VINA RESULT:    -8.788      2.985      7.221
REMARK INTER + INTRA:         -15.559
REMARK INTER:                 -14.588
REMARK INTRA:                  -0.971
REMARK UNBOUND:                -1.376
REMARK SMILES O=P(O)(O)OC[C@H]1O[C@H](O[P@@](=O)(O)OP(=O)(O)O)[C@H](O)[C@@H]1O
REMARK SMILES IDX 8 1 21 2 7 3 19 4 9 5 10 6 11 7 12 8 14 9 15 10 16 11 17 12
REMARK SMILES IDX 18 14 13 16 20 18 6 20 5 21 2 22 1 23 3 24 4 26 22 28
REMARK H PARENT 17 13 18 15 13 17 20 19 3 25 4 27 22 29
REMARK Flexibility Score: inf
ROOT
ATOM      1  O   UNL     1       0.433  13.074   5.201  1.00  0.00    -0.341 OA
ATOM      2  C   UNL     1      -0.064  12.666   2.923  1.00  0.00     0.179 C 
ATOM      3  C   UNL     1      -0.134  13.705   4.036  1.00  0.00     0.179 C 
ATOM      4  C   UNL     1       1.206  11.927   3.283  1.00  0.00     0.202 C 
ATOM      5  C   UNL     1       1.051  11.839   4.795  1.00  0.00     0.293 C 
ENDROOT
BRANCH   5   6
ATOM      6  O   UNL     1       2.302  11.618   5.423  1.00  0.00    -0.253 OA
BRANCH   6   7
ATOM      7  P   UNL     1       2.371  11.351   7.018  1.00  0.00     0.483 P 
ATOM      8  O   UNL     1       3.578  11.927   7.701  1.00  0.00    -0.228 OA
BRANCH   7   9
ATOM      9  O   UNL     1       2.228   9.747   7.167  1.00  0.00    -0.185 OA
BRANCH   9  10
ATOM     10  P   UNL     1       0.982   8.834   7.639  1.00  0.00     0.478 P 
ATOM     11  O   UNL     1       0.001   9.527   8.537  1.00  0.00    -0.228 OA
BRANCH  10  12
ATOM     12  O   UNL     1       1.701   7.534   8.276  1.00  0.00    -0.302 OA
ATOM     13  H   UNL     1       1.372   7.180   9.130  1.00  0.00     0.223 HD
ENDBRANCH  10  12
BRANCH  10  14
ATOM     14  O   UNL     1       0.374   8.283   6.246  1.00  0.00    -0.302 OA
ATOM     15  H   UNL     1      -0.376   8.762   5.833  1.00  0.00     0.223 HD
ENDBRANCH  10  14
ENDBRANCH   9  10
ENDBRANCH   7   9
BRANCH   7  16
ATOM     16  O   UNL     1       0.958  11.904   7.580  1.00  0.00    -0.302 OA
ATOM     17  H   UNL     1       0.598  11.525   8.411  1.00  0.00     0.223 HD
ENDBRANCH   7  16
ENDBRANCH   6   7
ENDBRANCH   5   6
BRANCH   4  18
ATOM     18  O   UNL     1       2.338  12.726   2.947  1.00  0.00    -0.385 OA
ATOM     19  H   UNL     1       3.016  12.617   3.634  1.00  0.00     0.211 HD
ENDBRANCH   4  18
BRANCH   3  20
ATOM     20  C   UNL     1      -1.549  14.163   4.340  1.00  0.00     0.208 C 
BRANCH  20  21
ATOM     21  O   UNL     1      -2.443  13.093   4.080  1.00  0.00    -0.284 OA
BRANCH  21  22
ATOM     22  P   UNL     1      -3.525  13.265   2.889  1.00  0.00     0.469 P 
ATOM     23  O   UNL     1      -3.455  14.569   2.151  1.00  0.00    -0.228 OA
BRANCH  22  24
ATOM     24  O   UNL     1      -4.939  12.952   3.607  1.00  0.00    -0.303 OA
ATOM     25  H   UNL     1      -5.164  13.422   4.439  1.00  0.00     0.223 HD
ENDBRANCH  22  24
BRANCH  22  26
ATOM     26  O   UNL     1      -3.271  11.951   1.980  1.00  0.00    -0.303 OA
ATOM     27  H   UNL     1      -3.930  11.716   1.292  1.00  0.00     0.223 HD
ENDBRANCH  22  26
ENDBRANCH  21  22
ENDBRANCH  20  21
ENDBRANCH   3  20
BRANCH   2  28
ATOM     28  O   UNL     1      -0.023  13.264   1.646  1.00  0.00    -0.387 OA
ATOM     29  H   UNL     1      -0.692  12.825   1.093  1.00  0.00     0.211 HD
ENDBRANCH   2  28
TORSDOF 14
REMARK SMILES O=c1[nH]cc(F)c(=O)[nH]1
REMARK SMILES IDX 6 1 8 2 1 3 9 4 3 5 7 6 2 7 5 8 4 9
REMARK H PARENT 9 10 3 11
REMARK Flexibility Score: inf
ROOT
ATOM      1  F   UNL     1      -4.021   9.207   3.903  1.00  0.00    -0.199 F 
ATOM      2  O   UNL     1      -1.344   9.609   4.187  1.00  0.00    -0.266 OA
ATOM      3  O   UNL     1      -2.066  12.095   8.027  1.00  0.00    -0.248 OA
ATOM      4  N   UNL     1      -1.679  10.859   6.113  1.00  0.00    -0.272 N 
ATOM      5  N   UNL     1      -3.865  11.204   6.896  1.00  0.00    -0.311 N 
ATOM      6  C   UNL     1      -2.095  10.103   5.022  1.00  0.00     0.289 A 
ATOM      7  C   UNL     1      -2.507  11.436   7.084  1.00  0.00     0.325 A 
ATOM      8  C   UNL     1      -3.558   9.931   4.938  1.00  0.00     0.204 A 
ATOM      9  C   UNL     1      -4.361  10.472   5.852  1.00  0.00     0.132 A 
ATOM     10  H   UNL     1      -0.678  11.007   6.216  1.00  0.00     0.175 HD
ATOM     11  H   UNL     1      -4.527  11.592   7.561  1.00  0.00     0.171 HD
ENDROOT
TORSDOF 0
ENDMDL
MODEL 6
REMARK VINA RESULT:    -8.673      1.529      2.181
REMARK INTER + INTRA:         -15.374
REMARK INTER:                 -14.197
REMARK INTRA:                  -1.176
REMARK UNBOUND:                -1.376
REMARK SMILES O=P(O)(O)OC[C@H]1O[C@H](O[P@@](=O)(O)OP(=O)(O)O)[C@H](O)[C@@H]1O
REMARK SMILES IDX 8 1 21 2 7 3 19 4 9 5 10 6 11 7 12 8 14 9 15 10 16 11 17 12
REMARK SMILES IDX 18 14 13 16 20 18 6 20 5 21 2 22 1 23 3 24 4 26 22 28
REMARK H PARENT 17 13 18 15 13 17 20 19 3 25 4 27 22 29
REMARK Flexibility Score: inf
ROOT
ATOM      1  O   UNL     1      -1.914  11.063   6.297  1.00  0.00    -0.341 OA
ATOM      2  C   UNL     1      -0.052   9.813   5.539  1.00  0.00     0.179 C 
ATOM      3  C   UNL     1      -1.075   9.950   6.661  1.00  0.00     0.179 C 
ATOM      4  C   UNL     1      -0.862  10.252   4.340  1.00  0.00     0.202 C 
ATOM      5  C   UNL     1      -1.617  11.432   4.936  1.00  0.00     0.293 C 
ENDROOT
BRANCH   5   6
ATOM      6  O   UNL     1      -2.779  11.728   4.182  1.00  0.00    -0.253 OA
BRANCH   6   7
ATOM      7  P   UNL     1      -2.834  13.064   3.270  1.00  0.00     0.483 P 
ATOM      8  O   UNL     1      -1.958  14.187   3.745  1.00  0.00    -0.228 OA
BRANCH   7   9
ATOM      9  O   UNL     1      -4.405  13.438   3.191  1.00  0.00    -0.185 OA
BRANCH   9  10
ATOM     10  P   UNL     1      -5.540  13.496   4.339  1.00  0.00     0.478 P 
ATOM     11  O   UNL     1      -5.371  14.608   5.331  1.00  0.00    -0.228 OA
BRANCH  10  12
ATOM     12  O   UNL     1      -5.508  12.005   4.962  1.00  0.00    -0.302 OA
ATOM     13  H   UNL     1      -4.798  11.771   5.598  1.00  0.00     0.223 HD
ENDBRANCH  10  12
BRANCH  10  14
ATOM     14  O   UNL     1      -6.920  13.523   3.498  1.00  0.00    -0.302 OA
ATOM     15  H   UNL     1      -7.652  14.099   3.805  1.00  0.00     0.223 HD
ENDBRANCH  10  14
ENDBRANCH   9  10
ENDBRANCH   7   9
BRANCH   7  16
ATOM     16  O   UNL     1      -2.500  12.545   1.775  1.00  0.00    -0.302 OA
ATOM     17  H   UNL     1      -3.145  11.961   1.321  1.00  0.00     0.223 HD
ENDBRANCH   7  16
ENDBRANCH   6   7
ENDBRANCH   5   6
BRANCH   4  18
ATOM     18  O   UNL     1      -1.772   9.217   3.971  1.00  0.00    -0.385 OA
ATOM     19  H   UNL     1      -2.525   9.226   4.586  1.00  0.00     0.211 HD
ENDBRANCH   4  18
BRANCH   3  20
ATOM     20  C   UNL     1      -0.445  10.207   8.018  1.00  0.00     0.208 C 
BRANCH  20  21
ATOM     21  O   UNL     1       0.582   9.253   8.234  1.00  0.00    -0.284 OA
BRANCH  21  22
ATOM     22  P   UNL     1       0.196   7.851   8.943  1.00  0.00     0.469 P 
ATOM     23  O   UNL     1      -0.474   6.850   8.048  1.00  0.00    -0.228 OA
BRANCH  22  24
ATOM     24  O   UNL     1      -0.656   8.298  10.241  1.00  0.00    -0.303 OA
ATOM     25  H   UNL     1      -0.376   7.981  11.126  1.00  0.00     0.223 HD
ENDBRANCH  22  24
BRANCH  22  26
ATOM     26  O   UNL     1       1.605   7.366   9.572  1.00  0.00    -0.303 OA
ATOM     27  H   UNL     1       1.941   6.471   9.351  1.00  0.00     0.223 HD
ENDBRANCH  22  26
ENDBRANCH  21  22
ENDBRANCH  20  21
ENDBRANCH   3  20
BRANCH   2  28
ATOM     28  O   UNL     1       0.442   8.496   5.432  1.00  0.00    -0.387 OA
ATOM     29  H   UNL     1       0.010   8.079   4.668  1.00  0.00     0.211 HD
ENDBRANCH   2  28
TORSDOF 14
REMARK SMILES O=c1[nH]cc(F)c(=O)[nH]1
REMARK SMILES IDX 6 1 8 2 1 3 9 4 3 5 7 6 2 7 5 8 4 9
REMARK H PARENT 9 10 3 11
REMARK Flexibility Score: inf
ROOT
ATOM      1  F   UNL     1       4.964  12.699   4.635  1.00  0.00    -0.199 F 
ATOM      2  O   UNL     1       6.120  11.731   6.901  1.00  0.00    -0.266 OA
ATOM      3  O   UNL     1       2.232  12.518   9.290  1.00  0.00    -0.248 OA
ATOM      4  N   UNL     1       4.185  12.117   8.121  1.00  0.00    -0.272 N 
ATOM      5  N   UNL     1       2.314  13.043   7.048  1.00  0.00    -0.311 N 
ATOM      6  C   UNL     1       4.961  12.125   6.967  1.00  0.00     0.289 A 
ATOM      7  C   UNL     1       2.860  12.558   8.231  1.00  0.00     0.325 A 
ATOM      8  C   UNL     1       4.264  12.665   5.783  1.00  0.00     0.204 A 
ATOM      9  C   UNL     1       3.005  13.090   5.868  1.00  0.00     0.132 A 
ATOM     10  H   UNL     1       4.619  11.754   8.965  1.00  0.00     0.175 HD
ATOM     11  H   UNL     1       1.357  13.382   7.051  1.00  0.00     0.171 HD
ENDROOT
TORSDOF 0
ENDMDL
MODEL 7
REMARK VINA RESULT:    -8.606      1.915      3.027
REMARK INTER + INTRA:         -15.265
REMARK INTER:                 -13.951
REMARK INTRA:                  -1.314
REMARK UNBOUND:                -1.376
REMARK SMILES O=P(O)(O)OC[C@H]1O[C@H](O[P@@](=O)(O)OP(=O)(O)O)[C@H](O)[C@@H]1O
REMARK SMILES IDX 8 1 21 2 7 3 19 4 9 5 10 6 11 7 12 8 14 9 15 10 16 11 17 12
REMARK SMILES IDX 18 14 13 16 20 18 6 20 5 21 2 22 1 23 3 24 4 26 22 28
REMARK H PARENT 17 13 18 15 13 17 20 19 3 25 4 27 22 29
REMARK Flexibility Score: inf
ROOT
ATOM      1  O   UNL     1      -0.373  11.611   6.080  1.00  0.00    -0.341 OA
ATOM      2  C   UNL     1      -1.575  11.506   8.116  1.00  0.00     0.179 C 
ATOM      3  C   UNL     1      -0.423  10.894   7.328  1.00  0.00     0.179 C 
ATOM      4  C   UNL     1      -1.517  12.947   7.661  1.00  0.00     0.202 C 
ATOM      5  C   UNL     1      -1.244  12.754   6.176  1.00  0.00     0.293 C 
ENDROOT
BRANCH   5   6
ATOM      6  O   UNL     1      -0.682  13.922   5.604  1.00  0.00    -0.253 OA
BRANCH   6   7
ATOM      7  P   UNL     1      -1.641  15.024   4.907  1.00  0.00     0.483 P 
ATOM      8  O   UNL     1      -2.745  15.543   5.783  1.00  0.00    -0.228 OA
BRANCH   7   9
ATOM      9  O   UNL     1      -2.153  14.315   3.547  1.00  0.00    -0.185 OA
BRANCH   9  10
ATOM     10  P   UNL     1      -1.397  14.038   2.146  1.00  0.00     0.478 P 
ATOM     11  O   UNL     1      -2.192  13.246   1.151  1.00  0.00    -0.228 OA
BRANCH  10  12
ATOM     12  O   UNL     1      -0.003  13.363   2.609  1.00  0.00    -0.302 OA
ATOM     13  H   UNL     1       0.813  13.908   2.606  1.00  0.00     0.223 HD
ENDBRANCH  10  12
BRANCH  10  14
ATOM     14  O   UNL     1      -0.957  15.516   1.661  1.00  0.00    -0.302 OA
ATOM     15  H   UNL     1      -0.103  15.627   1.191  1.00  0.00     0.223 HD
ENDBRANCH  10  14
ENDBRANCH   9  10
ENDBRANCH   7   9
BRANCH   7  16
ATOM     16  O   UNL     1      -0.623  16.162   4.371  1.00  0.00    -0.302 OA
ATOM     17  H   UNL     1       0.342  15.990   4.407  1.00  0.00     0.223 HD
ENDBRANCH   7  16
ENDBRANCH   6   7
ENDBRANCH   5   6
BRANCH   4  18
ATOM     18  O   UNL     1      -0.415  13.603   8.285  1.00  0.00    -0.385 OA
ATOM     19  H   UNL     1      -0.750  14.346   8.814  1.00  0.00     0.211 HD
ENDBRANCH   4  18
BRANCH   3  20
ATOM     20  C   UNL     1      -0.601   9.410   7.059  1.00  0.00     0.208 C 
BRANCH  20  21
ATOM     21  O   UNL     1       0.476   8.705   7.654  1.00  0.00    -0.284 OA
BRANCH  21  22
ATOM     22  P   UNL     1       0.150   7.671   8.856  1.00  0.00     0.469 P 
ATOM     23  O   UNL     1      -0.535   6.404   8.435  1.00  0.00    -0.228 OA
BRANCH  22  24
ATOM     24  O   UNL     1      -0.658   8.571   9.928  1.00  0.00    -0.303 OA
ATOM     25  H   UNL     1      -0.637   9.548   9.840  1.00  0.00     0.223 HD
ENDBRANCH  22  24
BRANCH  22  26
ATOM     26  O   UNL     1       1.594   7.466   9.555  1.00  0.00    -0.303 OA
ATOM     27  H   UNL     1       1.644   7.404  10.533  1.00  0.00     0.223 HD
ENDBRANCH  22  26
ENDBRANCH  21  22
ENDBRANCH  20  21
ENDBRANCH   3  20
BRANCH   2  28
ATOM     28  O   UNL     1      -1.405  11.349   9.508  1.00  0.00    -0.387 OA
ATOM     29  H   UNL     1      -2.245  11.587   9.937  1.00  0.00     0.211 HD
ENDBRANCH   2  28
TORSDOF 14
REMARK SMILES O=c1[nH]cc(F)c(=O)[nH]1
REMARK SMILES IDX 6 1 8 2 1 3 9 4 3 5 7 6 2 7 5 8 4 9
REMARK H PARENT 9 10 3 11
REMARK Flexibility Score: inf
ROOT
ATOM      1  F   UNL     1       4.677  13.031   7.653  1.00  0.00    -0.199 F 
ATOM      2  O   UNL     1       2.121  13.808   7.128  1.00  0.00    -0.266 OA
ATOM      3  O   UNL     1       2.486  12.269   2.775  1.00  0.00    -0.248 OA
ATOM      4  N   UNL     1       2.279  13.046   4.942  1.00  0.00    -0.272 N 
ATOM      5  N   UNL     1       4.282  12.068   4.206  1.00  0.00    -0.311 N 
ATOM      6  C   UNL     1       2.762  13.280   6.225  1.00  0.00     0.289 A 
ATOM      7  C   UNL     1       2.982  12.446   3.890  1.00  0.00     0.325 A 
ATOM      8  C   UNL     1       4.153  12.832   6.430  1.00  0.00     0.204 A 
ATOM      9  C   UNL     1       4.838  12.260   5.441  1.00  0.00     0.132 A 
ATOM     10  H   UNL     1       1.324  13.337   4.749  1.00  0.00     0.175 HD
ATOM     11  H   UNL     1       4.853  11.626   3.492  1.00  0.00     0.171 HD
ENDROOT
TORSDOF 0
ENDMDL
MODEL 8
REMARK VINA RESULT:    -8.556      4.450      7.768
REMARK INTER + INTRA:         -15.184
REMARK INTER:                 -13.191
REMARK INTRA:                  -1.992
REMARK UNBOUND:                -1.376
REMARK SMILES O=P(O)(O)OC[C@H]1O[C@H](O[P@@](=O)(O)OP(=O)(O)O)[C@H](O)[C@@H]1O
REMARK SMILES IDX 8 1 21 2 7 3 19 4 9 5 10 6 11 7 12 8 14 9 15 10 16 11 17 12
REMARK SMILES IDX 18 14 13 16 20 18 6 20 5 21 2 22 1 23 3 24 4 26 22 28
REMARK H PARENT 17 13 18 15 13 17 20 19 3 25 4 27 22 29
REMARK Flexibility Score: inf
ROOT
ATOM      1  O   UNL     1       0.354  11.763   5.206  1.00  0.00    -0.341 OA
ATOM      2  C   UNL     1       1.398  11.656   3.085  1.00  0.00     0.179 C 
ATOM      3  C   UNL     1       0.180  12.178   3.837  1.00  0.00     0.179 C 
ATOM      4  C   UNL     1       2.469  11.748   4.149  1.00  0.00     0.202 C 
ATOM      5  C   UNL     1       1.692  11.255   5.361  1.00  0.00     0.293 C 
ENDROOT
BRANCH   5   6
ATOM      6  O   UNL     1       2.304  11.680   6.566  1.00  0.00    -0.253 OA
BRANCH   6   7
ATOM      7  P   UNL     1       1.631  11.310   7.991  1.00  0.00     0.483 P 
ATOM      8  O   UNL     1       2.428  11.732   9.192  1.00  0.00    -0.228 OA
BRANCH   7   9
ATOM      9  O   UNL     1       1.352   9.720   7.907  1.00  0.00    -0.185 OA
BRANCH   9  10
ATOM     10  P   UNL     1      -0.019   8.876   8.035  1.00  0.00     0.478 P 
ATOM     11  O   UNL     1       0.166   7.391   8.131  1.00  0.00    -0.228 OA
BRANCH  10  12
ATOM     12  O   UNL     1      -0.882   9.383   6.766  1.00  0.00    -0.302 OA
ATOM     13  H   UNL     1      -1.075   8.752   6.040  1.00  0.00     0.223 HD
ENDBRANCH  10  12
BRANCH  10  14
ATOM     14  O   UNL     1      -0.763   9.563   9.295  1.00  0.00    -0.302 OA
ATOM     15  H   UNL     1      -0.581  10.505   9.498  1.00  0.00     0.223 HD
ENDBRANCH  10  14
ENDBRANCH   9  10
ENDBRANCH   7   9
BRANCH   7  16
ATOM     16  O   UNL     1       0.148  11.952   7.915  1.00  0.00    -0.302 OA
ATOM     17  H   UNL     1      -0.620  11.405   8.185  1.00  0.00     0.223 HD
ENDBRANCH   7  16
ENDBRANCH   6   7
ENDBRANCH   5   6
BRANCH   4  18
ATOM     18  O   UNL     1       2.853  13.110   4.326  1.00  0.00    -0.385 OA
ATOM     19  H   UNL     1       3.806  13.194   4.154  1.00  0.00     0.211 HD
ENDBRANCH   4  18
BRANCH   3  20
ATOM     20  C   UNL     1      -1.134  11.635   3.302  1.00  0.00     0.208 C 
BRANCH  20  21
ATOM     21  O   UNL     1      -1.394  10.382   3.912  1.00  0.00    -0.284 OA
BRANCH  21  22
ATOM     22  P   UNL     1      -2.919   9.842   3.944  1.00  0.00     0.469 P 
ATOM     23  O   UNL     1      -3.386   9.339   5.279  1.00  0.00    -0.228 OA
BRANCH  22  24
ATOM     24  O   UNL     1      -2.970   8.762   2.742  1.00  0.00    -0.303 OA
ATOM     25  H   UNL     1      -3.754   8.744   2.152  1.00  0.00     0.223 HD
ENDBRANCH  22  24
BRANCH  22  26
ATOM     26  O   UNL     1      -3.757  11.094   3.356  1.00  0.00    -0.303 OA
ATOM     27  H   UNL     1      -3.326  11.973   3.309  1.00  0.00     0.223 HD
ENDBRANCH  22  26
ENDBRANCH  21  22
ENDBRANCH  20  21
ENDBRANCH   3  20
BRANCH   2  28
ATOM     28  O   UNL     1       1.679  12.427   1.936  1.00  0.00    -0.387 OA
ATOM     29  H   UNL     1       1.016  12.204   1.261  1.00  0.00     0.211 HD
ENDBRANCH   2  28
TORSDOF 14
REMARK SMILES O=c1[nH]cc(F)c(=O)[nH]1
REMARK SMILES IDX 6 1 8 2 1 3 9 4 3 5 7 6 2 7 5 8 4 9
REMARK H PARENT 9 10 3 11
REMARK Flexibility Score: inf
ROOT
ATOM      1  F   UNL     1      -8.656  15.130   1.996  1.00  0.00    -0.199 F 
ATOM      2  O   UNL     1      -6.801  16.600   0.651  1.00  0.00    -0.266 OA
ATOM      3  O   UNL     1      -3.388  14.017   2.418  1.00  0.00    -0.248 OA
ATOM      4  N   UNL     1      -5.073  15.322   1.524  1.00  0.00    -0.272 N 
ATOM      5  N   UNL     1      -5.573  13.555   2.986  1.00  0.00    -0.311 N 
ATOM      6  C   UNL     1      -6.407  15.677   1.357  1.00  0.00     0.289 A 
ATOM      7  C   UNL     1      -4.588  14.276   2.319  1.00  0.00     0.325 A 
ATOM      8  C   UNL     1      -7.349  14.834   2.118  1.00  0.00     0.204 A 
ATOM      9  C   UNL     1      -6.908  13.836   2.880  1.00  0.00     0.132 A 
ATOM     10  H   UNL     1      -4.383  15.872   1.020  1.00  0.00     0.175 HD
ATOM     11  H   UNL     1      -5.297  12.781   3.583  1.00  0.00     0.171 HD
ENDROOT
TORSDOF 0
ENDMDL
MODEL 9
REMARK VINA RESULT:    -8.470      2.108      5.950
REMARK INTER + INTRA:         -15.046
REMARK INTER:                 -13.525
REMARK INTRA:                  -1.520
REMARK UNBOUND:                -1.376
REMARK SMILES O=P(O)(O)OC[C@H]1O[C@H](O[P@@](=O)(O)OP(=O)(O)O)[C@H](O)[C@@H]1O
REMARK SMILES IDX 8 1 21 2 7 3 19 4 9 5 10 6 11 7 12 8 14 9 15 10 16 11 17 12
REMARK SMILES IDX 18 14 13 16 20 18 6 20 5 21 2 22 1 23 3 24 4 26 22 28
REMARK H PARENT 17 13 18 15 13 17 20 19 3 25 4 27 22 29
REMARK Flexibility Score: inf
ROOT
ATOM      1  O   UNL     1      -1.774  11.442   5.822  1.00  0.00    -0.341 OA
ATOM      2  C   UNL     1      -3.377  11.060   4.123  1.00  0.00     0.179 C 
ATOM      3  C   UNL     1      -2.250  11.981   4.574  1.00  0.00     0.179 C 
ATOM      4  C   UNL     1      -2.902   9.725   4.651  1.00  0.00     0.202 C 
ATOM      5  C   UNL     1      -2.367  10.143   6.013  1.00  0.00     0.293 C 
ENDROOT
BRANCH   5   6
ATOM      6  O   UNL     1      -1.449   9.189   6.516  1.00  0.00    -0.253 OA
BRANCH   6   7
ATOM      7  P   UNL     1       0.118   9.570   6.659  1.00  0.00     0.483 P 
ATOM      8  O   UNL     1       0.827   9.821   5.359  1.00  0.00    -0.228 OA
BRANCH   7   9
ATOM      9  O   UNL     1       0.749   8.368   7.537  1.00  0.00    -0.185 OA
BRANCH   9  10
ATOM     10  P   UNL     1       0.240   7.672   8.903  1.00  0.00     0.478 P 
ATOM     11  O   UNL     1      -0.355   6.307   8.727  1.00  0.00    -0.228 OA
BRANCH  10  12
ATOM     12  O   UNL     1      -0.752   8.782   9.532  1.00  0.00    -0.302 OA
ATOM     13  H   UNL     1      -1.610   8.492   9.910  1.00  0.00     0.223 HD
ENDBRANCH  10  12
BRANCH  10  14
ATOM     14  O   UNL     1       1.539   7.741   9.863  1.00  0.00    -0.302 OA
ATOM     15  H   UNL     1       2.239   7.060   9.765  1.00  0.00     0.223 HD
ENDBRANCH  10  14
ENDBRANCH   9  10
ENDBRANCH   7   9
BRANCH   7  16
ATOM     16  O   UNL     1       0.135  10.824   7.681  1.00  0.00    -0.302 OA
ATOM     17  H   UNL     1      -0.706  11.106   8.101  1.00  0.00     0.223 HD
ENDBRANCH   7  16
ENDBRANCH   6   7
ENDBRANCH   5   6
BRANCH   4  18
ATOM     18  O   UNL     1      -1.841   9.236   3.831  1.00  0.00    -0.385 OA
ATOM     19  H   UNL     1      -1.071   9.046   4.393  1.00  0.00     0.211 HD
ENDBRANCH   4  18
BRANCH   3  20
ATOM     20  C   UNL     1      -2.695  13.419   4.775  1.00  0.00     0.208 C 
BRANCH  20  21
ATOM     21  O   UNL     1      -4.004  13.422   5.320  1.00  0.00    -0.284 OA
BRANCH  21  22
ATOM     22  P   UNL     1      -4.182  13.733   6.898  1.00  0.00     0.469 P 
ATOM     23  O   UNL     1      -2.936  14.189   7.599  1.00  0.00    -0.228 OA
BRANCH  22  24
ATOM     24  O   UNL     1      -4.851  12.383   7.483  1.00  0.00    -0.303 OA
ATOM     25  H   UNL     1      -5.263  12.404   8.374  1.00  0.00     0.223 HD
ENDBRANCH  22  24
BRANCH  22  26
ATOM     26  O   UNL     1      -5.403  14.793   6.920  1.00  0.00    -0.303 OA
ATOM     27  H   UNL     1      -5.442  15.488   6.228  1.00  0.00     0.223 HD
ENDBRANCH  22  26
ENDBRANCH  21  22
ENDBRANCH  20  21
ENDBRANCH   3  20
BRANCH   2  28
ATOM     28  O   UNL     1      -3.550  11.083   2.723  1.00  0.00    -0.387 OA
ATOM     29  H   UNL     1      -4.454  10.782   2.532  1.00  0.00     0.211 HD
ENDBRANCH   2  28
TORSDOF 14
REMARK SMILES O=c1[nH]cc(F)c(=O)[nH]1
REMARK SMILES IDX 6 1 8 2 1 3 9 4 3 5 7 6 2 7 5 8 4 9
REMARK H PARENT 9 10 3 11
REMARK Flexibility Score: inf
ROOT
ATOM      1  F   UNL     1       4.189  11.837   3.207  1.00  0.00    -0.199 F 
ATOM      2  O   UNL     1       4.880  12.420   5.775  1.00  0.00    -0.266 OA
ATOM      3  O   UNL     1       0.528  13.691   6.718  1.00  0.00    -0.248 OA
ATOM      4  N   UNL     1       2.707  13.064   6.272  1.00  0.00    -0.272 N 
ATOM      5  N   UNL     1       1.064  12.958   4.600  1.00  0.00    -0.311 N 
ATOM      6  C   UNL     1       3.713  12.590   5.437  1.00  0.00     0.289 A 
ATOM      7  C   UNL     1       1.367  13.269   5.921  1.00  0.00     0.325 A 
ATOM      8  C   UNL     1       3.260  12.298   4.063  1.00  0.00     0.204 A 
ATOM      9  C   UNL     1       1.990  12.488   3.709  1.00  0.00     0.132 A 
ATOM     10  H   UNL     1       2.968  13.280   7.231  1.00  0.00     0.175 HD
ATOM     11  H   UNL     1       0.111  13.082   4.271  1.00  0.00     0.171 HD
ENDROOT
TORSDOF 0
ENDMDL
